<?xml version="1.0" encoding="UTF-8"?>

<!-- generated on 2025-12-03 15:25:25 by Eclipse SUMO netedit Version 1.24.0
-->

<additional xmlns:xsi="http://www.w3.org/2001/XMLSchema-instance" xsi:noNamespaceSchemaLocation="http://sumo.dlr.de/xsd/additional_file.xsd">
    <!-- Shapes -->
    <poly id="1049473483" type="landuse" color="194,194,130" fill="1" layer="-3.00" shape="1434.102304,799.490926 1445.539328,794.316784 1476.746349,797.411080 1476.780091,814.496775 1496.567976,815.815596 1478.957004,957.352456 1395.454864,949.125630 1402.049672,870.070394 1429.342779,872.190068 1434.102304,799.490926"/>
    <poly id="1062481460" type="landuse" color="194,194,130" fill="1" layer="-3.00" shape="1402.049672,870.070394 1429.342779,872.190068 1434.102304,799.490926 1405.609252,820.520299 1402.049672,870.070394"/>
    <poly id="1062481461" type="building" color="255,230,230" fill="1" layer="-1.00" shape="1960.566991,540.756848 1983.255358,506.596590 1967.242382,475.113387 1951.949826,486.394378 1954.607582,511.613980 1960.566991,540.756848"/>
    <poly id="1062481461#1" type="shop" color="237,199,255" fill="1" layer="-1.00" shape="1960.566991,540.756848 1983.255358,506.596590 1967.242382,475.113387 1951.949826,486.394378 1954.607582,511.613980 1960.566991,540.756848"/>
    <poly id="1062481462" type="building" color="255,230,230" fill="1" layer="-1.00" shape="1973.992032,438.019635 1943.900749,455.066652 1915.324446,389.150325 1930.300521,391.781917 1954.285687,391.782775 1973.992032,438.019635"/>
    <poly id="1062481464" type="building" color="255,230,230" fill="1" layer="-1.00" shape="1939.980331,472.871091 1924.325664,437.755290 1908.132483,445.812478 1922.228739,480.354661 1939.980331,472.871091"/>
    <poly id="1062481465" type="commercial" color="209,209,204" fill="1" layer="-3.00" shape="1983.255358,506.596590 1994.104018,490.261992 2004.390718,485.562424 2010.528503,481.472591 1995.187315,455.550023 1967.242382,475.113387 1983.255358,506.596590"/>
    <poly id="1062481466" type="commercial" color="209,209,204" fill="1" layer="-3.00" shape="1908.951954,381.821993 1930.385267,432.039379 1945.721647,465.199131 2017.593656,418.581381 1954.392265,386.403812 1933.436279,386.079121 1908.951954,381.821993"/>
    <poly id="1062481467" type="building" color="255,230,230" fill="1" layer="-1.00" shape="1939.195309,513.633717 1936.130829,497.945317 1927.222158,499.667827 1930.286644,515.356227 1939.195309,513.633717"/>
    <poly id="1119486606" type="building" color="255,230,230" fill="1" layer="-1.00" shape="1463.283636,736.537704 1466.191409,734.588107 1468.517926,738.010361 1469.730422,739.804075 1466.811861,741.753761 1465.118701,739.244739 1463.283636,736.537704"/>
    <poly id="1119486609" type="amenity" color="237,199,199" fill="1" layer="-1.00" shape="1456.740006,735.905856 1461.583912,728.030939 1482.455232,740.296161 1464.309253,741.818772 1456.740006,735.905856"/>
    <poly id="1124576966" type="building" color="255,230,230" fill="1" layer="-1.00" shape="1741.771711,589.553362 1746.069206,596.467253 1750.115260,602.984850 1786.388856,580.751752 1782.200633,574.002941 1778.056112,567.320165 1741.771711,589.553362"/>
    <poly id="1124577128" type="building" color="255,230,230" fill="0" layer="-1.00" shape="1764.586970,596.834077 1787.914224,583.848681"/>
    <poly id="1124577129" type="building" color="255,230,230" fill="0" layer="-1.00" shape="1762.270965,597.284822 1807.011216,635.955473 1827.415707,653.104949 1851.281692,670.026609 1887.579293,684.610106 1913.000820,705.679770 1921.615009,714.018692 1926.277198,727.204021 1931.585657,757.215418 1931.571433,772.453443 1929.196149,808.780697 1927.511596,832.088601"/>
    <poly id="1136352346" type="amenity" color="237,199,199" fill="1" layer="-1.00" shape="1661.943046,660.229099 1682.533368,648.992556 1710.688869,658.818448 1702.723524,675.428115 1661.943046,660.229099"/>
    <poly id="1136352346#1" type="landuse" color="194,194,130" fill="1" layer="-3.00" shape="1661.943046,660.229099 1682.533368,648.992556 1710.688869,658.818448 1702.723524,675.428115 1661.943046,660.229099"/>
    <poly id="114921269" type="building" color="255,230,230" fill="1" layer="-1.00" shape="1626.018533,636.004300 1638.962048,639.449291 1636.533758,648.488222 1623.579550,645.054387 1626.018533,636.004300"/>
    <poly id="119709658" type="leisure" color="207,245,201" fill="1" layer="-2.00" shape="1371.676987,531.745390 1360.580447,519.443433 1338.270856,539.337091 1349.367309,551.627973 1371.676987,531.745390"/>
    <poly id="119709658#1" type="sport" color="79,230,125" fill="1" layer="-2.00" shape="1371.676987,531.745390 1360.580447,519.443433 1338.270856,539.337091 1349.367309,551.627973 1371.676987,531.745390"/>
    <poly id="121970261" type="water" color="181,209,209" fill="1" layer="-4.00" shape="1489.612076,451.711891 1469.991008,441.915066 1450.229118,432.053024 1400.713052,410.895775 1377.791977,403.903950 1369.780969,396.777443 1359.753528,392.400972 1346.197348,380.152608 1335.692277,379.332309 1327.490890,375.272688 1305.680017,362.948944 1301.019384,359.103416 1269.059334,326.435946 1244.423278,303.921713 1245.569335,302.905194 1220.368537,282.553546 1208.108088,270.438348 1203.308360,266.737847 1191.910916,254.604429 1166.100487,247.913399 1151.770466,246.449883 1133.541977,247.176616 1108.322569,241.498815 1082.127597,224.884800 1056.667561,207.124901 1034.485742,193.044932 1014.328874,179.844514 997.013268,176.170530 991.000105,170.576777 987.788285,168.401306 984.890906,166.411347 967.888527,145.892219 939.825051,103.100456 923.258700,77.929976 922.371127,74.993774 922.268117,71.685874 925.126024,49.441457 925.112327,47.792726 924.881563,45.990874 924.205507,43.838606 918.761583,32.740298 917.743588,30.989250 916.019249,28.635436 903.166298,14.068607 901.558857,12.798298 900.104761,11.803367 898.391360,10.766326 864.516779,-9.369112 862.324887,-10.855884 860.358921,-12.421996 846.879539,-24.460532 843.455241,-27.530575 839.954038,-30.765971 821.994011,-49.639293 820.054067,-48.073918 813.210407,-44.531222 833.250986,-18.094935 835.004759,-16.095485 837.341141,-14.100876 867.888596,5.564203 870.512047,7.047389 878.282998,11.221123 879.949934,11.860170 881.689910,12.199827 885.321000,12.888950 888.802883,13.800636 893.510453,15.487829 897.907439,17.454255 899.146122,18.495240 900.170404,19.703998 911.592145,39.926413 912.115960,41.936086 912.454799,43.759173 912.520906,47.819873 911.823410,72.956720 912.329476,76.726047 913.404968,80.202924 926.072710,102.351552 928.629600,106.214501 949.018642,138.258455 961.150005,160.787795 901.159097,185.443445 823.302672,159.731105 793.782101,146.763607 788.629621,144.770284 784.697557,144.216472 767.346370,145.356680 759.538738,145.853176 752.168645,147.065331 746.246576,148.542099 741.203291,150.598064 733.713257,155.551559 728.274304,161.926590 732.047503,171.921085 740.457240,163.385596 744.920333,160.327441 750.103872,158.270311 756.316045,156.647271 761.522335,156.028545 784.393647,156.978191 788.598929,157.950242 792.656753,159.355098 810.249763,169.135117 814.173306,171.260386 849.854607,184.209896 855.083607,186.324321 887.772488,201.434503 891.538996,202.841793 895.306729,203.098202 898.774794,202.350088 924.393251,192.410144 928.919495,190.458107 932.754878,188.467547 949.490282,178.147726 953.960562,175.952706 956.521531,175.112542 959.191217,174.371070 961.938816,173.916669 964.798717,173.992507 991.963383,186.526049 1013.423829,198.188506 1039.416826,221.654032 1043.922939,223.774496 1064.376071,229.779528 1071.727081,236.667982 1080.531508,241.873395 1105.380313,253.596316 1111.334516,255.992487 1116.992640,257.815682 1122.936093,258.917216 1185.209401,266.168741 1191.018560,267.990698 1196.107203,271.401082 1242.905289,313.428983 1300.147123,376.218768 1304.241911,380.788283 1309.047567,385.208042 1313.998209,388.896241 1319.665828,391.870267 1326.202570,394.261651 1334.175418,396.784985 1343.767731,400.733478 1363.568089,416.526527 1374.909317,421.899115 1386.935115,425.252010 1405.264734,436.741522 1411.217665,438.993907 1441.848981,450.680244 1448.390461,453.647051 1455.214741,456.888167 1461.602790,459.568532 1488.303411,469.561196 1516.605303,482.694439 1522.319542,487.394421 1529.866803,489.345903 1541.267039,487.525143 1552.543831,485.129976 1568.754549,485.714969 1583.680080,488.756212 1588.182513,490.445217 1591.523332,492.575421 1594.868981,493.986292 1597.850470,495.721096 1599.989058,497.296891 1601.849063,499.107380 1612.859755,517.994430 1616.097314,523.290377 1632.795780,547.596945 1636.109286,551.641803 1639.752661,555.130628 1643.621407,558.473728 1647.914579,562.255956 1651.424203,566.531578 1675.573841,573.380658 1678.619290,573.720619 1681.581980,573.187050 1684.829461,571.865434 1688.364596,571.404588 1691.474777,571.744015 1746.199940,583.585315 1752.731815,585.401405 1758.611439,587.931122 1763.771879,590.909433 1768.355130,594.545418 1787.067610,613.224919 1799.894360,624.727025 1808.865268,631.834635 1829.739396,645.760014 1838.048697,652.452598 1842.121194,655.650179 1846.720520,659.927872 1859.417225,664.846795 1899.912668,683.434676 1903.935339,688.436439 1910.269166,693.706802 1916.960286,697.823344 1922.242309,703.766370 1930.064341,721.993800 1935.786575,748.549178 1931.404329,817.471388 1931.427485,820.270900 1931.382432,822.650466 1931.113746,825.385995 1930.624438,827.536850 1929.712646,830.786736 1928.080946,834.396689 1889.466714,907.530552 1886.582649,912.346001 1879.585892,920.836202 1877.336327,924.097160 1846.971243,967.948568 1842.240628,973.874843 1821.318938,998.492853 1817.274406,1003.882287 1810.153183,1012.971111 1807.584102,1016.732694 1806.057297,1019.976612 1788.799115,1072.672050 1787.812385,1075.988961 1787.380978,1078.615182 1780.416954,1126.234635 1780.034152,1132.124932 1780.065253,1138.487642 1780.268490,1143.487806 1785.062398,1180.397591 1786.421398,1186.859967 1787.343933,1194.034183 1788.128691,1201.508323 1788.902731,1207.687825 1790.552925,1214.136725 1793.059142,1219.726452 1833.995677,1326.882961 1836.076202,1333.184440 1840.284315,1385.359130 1824.349582,1493.617233 1804.469633,1625.733215 1782.161472,1704.320820 1787.982427,1702.402449 1805.011972,1708.159610 1819.630936,1646.909780 1829.042863,1583.534143 1842.817215,1499.738775 1855.178485,1408.142514 1856.865228,1378.604388 1853.111984,1343.578279 1849.478542,1323.025543 1823.640641,1241.173760 1805.552719,1191.017330 1804.539526,1185.924279 1803.722887,1179.811525 1802.095755,1105.771127 1802.325346,1100.922306 1803.028991,1095.992098 1804.434164,1091.089281 1820.084081,1040.919156 1822.015061,1035.668942 1824.196377,1030.682241 1827.472812,1025.044647 1840.893910,1002.790448 1843.750717,998.594913 1898.728173,924.993570 1909.569500,906.501084 1922.499695,895.317031 1948.300794,830.555525 1949.507541,827.745841 1950.281555,824.795879 1950.828367,821.770333 1951.094675,818.747108 1951.285463,815.724507 1950.514034,787.678533 1952.324593,762.643295 1950.221047,710.506555 1936.020081,680.247787 1847.090627,635.546363 1836.514596,628.739739 1829.384844,623.774759 1822.272363,618.289536 1816.591224,613.666685 1811.340349,608.885351 1800.547115,599.302964 1791.667066,591.442114 1782.307379,584.293461 1777.653370,581.233493 1772.569642,578.398402 1767.186850,575.930966 1761.679355,574.039996 1708.780984,563.909837 1705.443688,563.505892 1675.115467,561.023696 1671.484491,560.334470 1668.152027,559.211198 1665.033505,557.864834 1659.939609,555.107310 1656.955475,553.051607 1653.751900,550.555081 1632.895393,530.963871 1629.110477,527.321295 1626.112040,523.539412 1623.189674,519.823297 1620.803996,515.770755 1615.873350,497.552635 1612.397544,493.453793 1606.105197,487.995025 1596.641375,481.312066 1584.135173,473.359586 1532.764961,473.209736 1519.554983,468.870645 1508.086734,463.786768 1498.036701,456.677124 1489.612076,451.711891"/>
    <poly id="121970280" type="leisure" color="207,245,201" fill="1" layer="-2.00" shape="1747.915606,384.161311 1817.588168,409.468183 1831.973336,412.403387 1839.171574,412.598353 1845.364034,408.596554 1851.921917,401.814162 1853.932966,395.799743 1855.172965,387.877282 1854.219514,376.963008 1846.453464,365.518591 1839.027497,359.969552 1757.774910,333.032138 1748.950826,333.249026 1742.741141,335.170578 1736.967772,337.663954 1732.383412,343.024656 1729.540820,348.946377 1728.038116,359.017833 1729.109345,367.208892 1733.397880,378.250488 1747.915606,384.161311"/>
    <poly id="123172311" type="amenity" color="237,199,199" fill="1" layer="-1.00" shape="1623.672176,459.531546 1651.125246,473.103538 1656.671601,478.380371 1671.805401,497.454621 1684.167730,504.976756 1697.041797,513.059027 1747.768850,531.982508 1766.616056,536.950080 1773.206795,536.751673 1778.160167,540.782975 1799.039072,556.578458 1878.418773,504.586416 1903.491565,491.298994 1886.940547,454.785239 1930.385267,432.039379 1908.951954,381.821993 1933.436279,386.079121 1938.535556,372.525351 1874.903942,341.845424 1829.800179,311.443927 1875.881050,249.956200 1828.976211,209.233918 1808.272239,227.653066 1778.598717,198.717481 1533.796260,423.182693 1536.863735,426.178307 1623.672176,459.531546"/>
    <poly id="1337841130" type="amenity" color="237,199,199" fill="1" layer="-1.00" shape="1057.088444,1055.424174 1087.400726,1058.636042 1091.976877,1022.445175 1072.966061,1017.247113 1044.404144,1036.418448 1057.088444,1055.424174"/>
    <poly id="1337841131" type="amenity" color="237,199,199" fill="1" layer="-1.00" shape="1150.252490,1017.545825 1162.155155,961.917467 1129.064109,981.391879 1150.252490,1017.545825"/>
    <poly id="135364506" type="building" color="255,230,230" fill="1" layer="-1.00" shape="1898.281512,413.182805 1913.760273,404.843805 1904.480767,387.823554 1889.001906,396.151493 1898.281512,413.182805"/>
    <poly id="135364507" type="building" color="255,230,230" fill="1" layer="-1.00" shape="1648.303176,403.322375 1672.431342,412.772168 1677.272025,400.581588 1653.143851,391.131789 1648.303176,403.322375"/>
    <poly id="135364513" type="building" color="255,230,230" fill="1" layer="-1.00" shape="1882.095721,441.701015 1877.576613,434.080711 1865.228449,441.309370 1869.747559,448.929672 1882.095721,441.701015"/>
    <poly id="135364517" type="parking" color="184,184,179" fill="1" layer="-1.00" shape="1867.610354,456.649301 1867.406625,502.453241 1841.919520,517.824544 1806.948503,496.690081 1867.610354,456.649301"/>
    <poly id="135364518" type="leisure" color="207,245,201" fill="1" layer="-2.00" shape="1746.859952,377.851348 1738.558876,372.165720 1734.735234,365.148309 1733.962376,359.112656 1735.368954,353.070029 1736.922766,349.172993 1739.066320,346.134226 1745.109481,342.343893 1749.730824,340.147770 1757.546706,340.658518 1834.597658,367.055254 1841.287683,371.027940 1845.092252,375.743788 1847.865841,379.737809 1848.663740,387.499554 1847.118715,393.764637 1844.271344,399.110948 1838.164565,404.340366 1830.582885,406.051929 1822.689125,405.254088 1746.859952,377.851348"/>
    <poly id="135364518#1" type="sport" color="79,230,125" fill="1" layer="-2.00" shape="1746.859952,377.851348 1738.558876,372.165720 1734.735234,365.148309 1733.962376,359.112656 1735.368954,353.070029 1736.922766,349.172993 1739.066320,346.134226 1745.109481,342.343893 1749.730824,340.147770 1757.546706,340.658518 1834.597658,367.055254 1841.287683,371.027940 1845.092252,375.743788 1847.865841,379.737809 1848.663740,387.499554 1847.118715,393.764637 1844.271344,399.110948 1838.164565,404.340366 1830.582885,406.051929 1822.689125,405.254088 1746.859952,377.851348"/>
    <poly id="135364520" type="building" color="255,230,230" fill="1" layer="-1.00" shape="1864.140508,440.222834 1879.835464,430.631561 1866.340858,408.832468 1850.645982,418.434813 1864.140508,440.222834"/>
    <poly id="135364529" type="building" color="255,230,230" fill="1" layer="-1.00" shape="1844.507704,409.422523 1850.255022,418.128199 1872.469493,403.636074 1867.421542,395.998013 1866.711391,394.930483 1844.507704,409.422523"/>
    <poly id="135364534" type="building" color="255,230,230" fill="1" layer="-1.00" shape="1898.988867,430.871516 1874.495764,391.634815 1867.421542,395.998013 1872.469493,403.636074 1887.212414,427.649114 1880.481704,431.799213 1885.205341,439.362496 1898.988867,430.871516"/>
    <poly id="135364535" type="parking" color="184,184,179" fill="1" layer="-1.00" shape="1689.575967,441.446162 1698.846174,416.924555 1711.050413,422.290141 1710.573659,425.956943 1761.759676,439.044879 1757.727682,458.997096 1749.879765,472.861386 1704.431414,452.964638 1689.575967,441.446162"/>
    <poly id="1380320299" type="amenity" color="237,199,199" fill="1" layer="-1.00" shape="1811.492323,758.928322 1809.082427,751.943472 1823.797100,747.782597 1826.208823,754.988753 1822.146719,755.653132 1811.492323,758.928322"/>
    <poly id="1380320299#1" type="building" color="255,230,230" fill="1" layer="-1.00" shape="1811.492323,758.928322 1809.082427,751.943472 1823.797100,747.782597 1826.208823,754.988753 1822.146719,755.653132 1811.492323,758.928322"/>
    <poly id="140483256" type="residential" color="235,235,227" fill="1" layer="-3.00" shape="1291.825889,665.963899 1356.832092,695.845245 1389.030271,723.464663 1371.551199,746.859394 1383.657119,765.095442 1223.203389,869.883247 1005.904235,1008.719042 922.677036,1001.144411 927.880904,979.489096 1191.979068,737.327547 1203.605001,749.713563 1291.825889,665.963899"/>
    <poly id="140483258" type="landuse" color="194,194,130" fill="1" layer="-3.00" shape="648.718566,405.356228 630.387809,405.453429 606.663130,620.853229 503.405587,608.986896 492.562836,742.512277 487.274843,795.485502 494.380913,840.321504 717.081901,861.916611 950.656040,889.775207 975.030599,895.127806 1085.852253,794.269413 1186.480105,679.276364 1273.518222,601.191239 1264.815882,592.665116 1191.204632,654.427037 1092.718687,616.801181 954.191707,662.183011 735.316029,636.249050 625.048674,622.171993 648.718566,405.356228"/>
    <poly id="140795273" type="amenity" color="237,199,199" fill="1" layer="-1.00" shape="1259.480251,473.649684 1279.289616,490.527065 1250.916188,523.407333 1243.505349,517.094774 1240.352770,520.750600 1235.321660,516.465518 1238.538419,512.742763 1231.171005,506.463045 1259.480251,473.649684"/>
    <poly id="140795273#1" type="building" color="255,230,230" fill="1" layer="-1.00" shape="1259.480251,473.649684 1279.289616,490.527065 1250.916188,523.407333 1243.505349,517.094774 1240.352770,520.750600 1235.321660,516.465518 1238.538419,512.742763 1231.171005,506.463045 1259.480251,473.649684"/>
    <poly id="141026882" type="building" color="255,230,230" fill="1" layer="-1.00" shape="1477.340755,811.847343 1478.532863,796.865101 1497.728853,798.365887 1496.536826,813.359192 1477.340755,811.847343"/>
    <poly id="234235869" type="amenity" color="237,199,199" fill="1" layer="-1.00" shape="1164.620257,481.663020 1189.298720,448.193613 1210.882021,460.397416 1195.121410,508.853694 1164.620257,481.663020"/>
    <poly id="234235869#1" type="landuse" color="194,194,130" fill="1" layer="-3.00" shape="1164.620257,481.663020 1189.298720,448.193613 1210.882021,460.397416 1195.121410,508.853694 1164.620257,481.663020"/>
    <poly id="234243877" type="amenity" color="237,199,199" fill="1" layer="-1.00" shape="1779.370418,883.830857 1789.237335,859.724835 1808.193863,874.020159 1800.790671,892.063730 1779.370418,883.830857"/>
    <poly id="234243877#1" type="landuse" color="194,194,130" fill="1" layer="-3.00" shape="1779.370418,883.830857 1789.237335,859.724835 1808.193863,874.020159 1800.790671,892.063730 1779.370418,883.830857"/>
    <poly id="235182283" type="building" color="255,230,230" fill="1" layer="-1.00" shape="1421.529689,749.687293 1426.920142,754.378867 1428.073393,752.930719 1445.062846,760.270506 1445.147046,753.508453 1429.556849,740.557643 1421.529689,749.687293"/>
    <poly id="235182283#1" type="shop" color="237,199,255" fill="1" layer="-1.00" shape="1421.529689,749.687293 1426.920142,754.378867 1428.073393,752.930719 1445.062846,760.270506 1445.147046,753.508453 1429.556849,740.557643 1421.529689,749.687293"/>
    <poly id="26949260" type="water" color="181,209,209" fill="0" layer="-4.00" shape="984.395299,171.693979 1100.548035,243.378191 1130.125818,256.777116 1164.607636,259.146773 1181.281137,263.468023 1198.256674,269.081505 1237.012236,301.493336 1291.031264,352.967141 1326.156800,383.539026 1363.605364,409.311154 1396.684176,418.177438 1434.729417,435.246797 1485.382566,458.220577 1517.405048,475.041178 1531.745096,479.038923 1577.761152,480.184801 1590.244007,486.621425 1606.042428,494.745826 1615.675415,516.643185 1644.341222,552.890486 1667.807705,564.536811 1697.138230,566.407560 1735.988049,572.548490 1772.028317,587.299967 1806.274470,621.243758 1853.980277,657.134498 1922.461609,688.537715 1934.327027,707.749777 1938.677860,739.384734 1943.768662,820.047095 1928.408792,862.291412 1894.189589,918.922677 1842.566505,996.302980 1804.513702,1043.349775 1793.728999,1094.730098 1791.675898,1134.750792 1795.157495,1186.477790 1801.815183,1215.238614 1842.004956,1307.783090 1851.162558,1384.394862 1808.517201,1618.119464 1799.714018,1659.889179 1787.982427,1702.402449 1773.842906,1735.551677 1756.783765,1752.269906 1756.316759,1764.922255 1759.081177,1776.939204 1771.144749,1792.752237 1790.503618,1804.897321 1820.540592,1807.569988 1932.940211,1795.894300 1949.357487,1803.294386 1959.163310,1816.171549 1975.127302,1874.401655 1983.539541,1932.694257 1978.214067,1968.404130 1964.622413,2001.272058 1949.803941,2031.903751 1928.348180,2062.269488 1905.158110,2116.408382 1907.228660,2167.117929 1922.755586,2220.770285 1935.440303,2254.305999 1954.393340,2286.550426 1976.217256,2321.537603 2007.573275,2362.432616 2084.219191,2454.077911 2090.986117,2483.059167 2092.848774,2513.895829 2081.381015,2545.252241 2064.939506,2567.453955 2041.775125,2585.550502 2005.535751,2599.826869 1967.685246,2622.781338 1917.371692,2661.088090 1877.319739,2734.743411 1848.877635,2790.309252 1824.088026,2873.919429 1813.072869,2957.216303 1812.085161,2999.452517 1820.204193,3066.578252 1840.925545,3123.474107 1882.484883,3168.046774 1941.090789,3181.504424 2023.136078,3158.050993 2079.901540,3168.137997 2173.870772,3177.607397 2244.692262,3183.661084 2330.095277,3200.948128 2388.184786,3201.585546 2458.567041,3184.537629 2533.449318,3180.698759 2570.441971,3185.870887 2611.543808,3197.438483 2640.559860,3213.886431 2668.595795,3238.376412 2709.970275,3272.538661 2770.904282,3308.077734"/>
    <poly id="277760608" type="building" color="255,230,230" fill="1" layer="-1.00" shape="1757.501556,769.279308 1735.059348,765.337472 1730.409415,791.436471 1733.067453,791.901369 1732.139717,797.132217 1751.934650,800.609057 1757.501556,769.279308"/>
    <poly id="321801091" type="amenity" color="237,199,199" fill="1" layer="-1.00" shape="1471.101262,741.175967 1478.545452,741.114259 1478.965926,747.584410 1474.484348,748.407249 1469.626563,746.798677 1465.843427,744.672160 1466.910977,741.996393 1471.101262,741.175967"/>
    <poly id="321801092" type="parking" color="184,184,179" fill="1" layer="-1.00" shape="1488.979533,725.579572 1484.772299,732.165543 1453.622072,712.504884 1450.522558,717.355376 1419.177167,697.585710 1426.494694,686.149141 1488.979533,725.579572"/>
    <poly id="321801188" type="building" color="255,230,230" fill="1" layer="-1.00" shape="1546.239774,737.388324 1550.199706,726.997696 1565.865881,730.895923 1563.641668,742.423034 1546.239774,737.388324"/>
    <poly id="321801188#1" type="shop" color="237,199,255" fill="1" layer="-1.00" shape="1546.239774,737.388324 1550.199706,726.997696 1565.865881,730.895923 1563.641668,742.423034 1546.239774,737.388324"/>
    <poly id="321801190" type="amenity" color="237,199,199" fill="1" layer="-1.00" shape="1516.595055,723.624384 1519.210907,707.280292 1524.142441,707.372215 1527.412129,717.846793 1516.595055,723.624384"/>
    <poly id="321801190#1" type="building" color="255,230,230" fill="1" layer="-1.00" shape="1516.595055,723.624384 1519.210907,707.280292 1524.142441,707.372215 1527.412129,717.846793 1516.595055,723.624384"/>
    <poly id="321801250" type="building" color="255,230,230" fill="1" layer="-1.00" shape="1508.660425,726.998892 1511.480928,715.820945 1516.244469,681.321809 1520.768498,636.145932 1433.567552,585.334143 1418.679682,623.270256 1422.909582,625.924236 1431.335729,631.077551 1416.469423,670.308220 1508.660425,726.998892"/>
    <poly id="321801438" type="building" color="255,230,230" fill="1" layer="-1.00" shape="1798.348392,555.256251 1780.650921,541.891095 1801.156877,528.265109 1802.602145,530.809400 1809.102971,527.568591 1812.458978,532.841445 1815.571892,532.207056 1820.482881,540.244616 1798.348392,555.256251"/>
    <poly id="321940791" type="amenity" color="237,199,199" fill="1" layer="-1.00" shape="1387.523594,1171.419899 1409.809038,986.077856 1471.907178,991.959104 1464.529921,1069.051034 1490.749486,1073.149403 1477.356629,1184.651289 1448.844823,1181.246988 1387.523594,1171.419899"/>
    <poly id="322653806" type="amenity" color="237,199,199" fill="1" layer="-1.00" shape="1411.716916,854.453490 1413.852361,815.317295 1430.779758,815.176934 1427.498252,855.329637 1411.716916,854.453490"/>
    <poly id="322653806#1" type="building" color="255,230,230" fill="1" layer="-1.00" shape="1411.716916,854.453490 1413.852361,815.317295 1430.779758,815.176934 1427.498252,855.329637 1411.716916,854.453490"/>
    <poly id="322654905" type="amenity" color="237,199,199" fill="1" layer="-1.00" shape="1246.088355,1154.644394 1387.523594,1171.419899 1409.809038,986.077856 1268.362011,969.302185 1249.620293,1125.212548 1246.088355,1154.644394"/>
    <poly id="330664715" type="amenity" color="237,199,199" fill="1" layer="-1.00" shape="1534.573182,707.053388 1536.136992,706.974033 1536.048571,702.813934 1534.505788,702.826719 1534.573182,707.053388"/>
    <poly id="335393560" type="amenity" color="237,199,199" fill="1" layer="-1.00" shape="1804.259732,489.906726 1798.041532,480.363939 1762.851858,469.323552 1770.917407,436.125120 1803.438688,444.144448 1821.149496,410.866234 1844.442670,415.907749 1838.502128,439.925896 1848.963530,432.867756 1860.986291,454.125715 1804.259732,489.906726"/>
    <poly id="335393560#1" type="building" color="255,230,230" fill="1" layer="-1.00" shape="1804.259732,489.906726 1798.041532,480.363939 1762.851858,469.323552 1770.917407,436.125120 1803.438688,444.144448 1821.149496,410.866234 1844.442670,415.907749 1838.502128,439.925896 1848.963530,432.867756 1860.986291,454.125715 1804.259732,489.906726"/>
    <poly id="410324451" type="building" color="255,230,230" fill="1" layer="-1.00" shape="1452.405026,1036.794444 1455.083686,1017.627968 1466.835864,1019.245762 1464.157195,1038.412236 1452.405026,1036.794444"/>
    <poly id="410324550" type="building" color="255,230,230" fill="1" layer="-1.00" shape="1412.641541,1002.376791 1414.238808,990.722058 1471.389236,998.459169 1469.792036,1010.124960 1412.641541,1002.376791"/>
    <poly id="410324693" type="building" color="255,230,230" fill="1" layer="-1.00" shape="1327.864893,986.171085 1329.081217,974.121124 1351.055639,976.306958 1349.850002,988.345761 1327.864893,986.171085"/>
    <poly id="410324756" type="building" color="255,230,230" fill="1" layer="-1.00" shape="1327.797338,1007.938579 1330.224785,992.315299 1339.050806,993.658530 1336.634234,1009.292784 1327.797338,1007.938579"/>
    <poly id="410324785" type="building" color="255,230,230" fill="1" layer="-1.00" shape="1250.015619,1037.654584 1253.663468,1006.584004 1265.273221,1007.937303 1261.625266,1038.996813 1250.015619,1037.654584"/>
    <poly id="410324786" type="building" color="255,230,230" fill="1" layer="-1.00" shape="1255.263344,1005.652243 1256.798837,994.363183 1284.698806,998.115422 1283.163301,1009.404479 1255.263344,1005.652243"/>
    <poly id="410324793" type="building" color="255,230,230" fill="1" layer="-1.00" shape="1273.819124,1022.329720 1276.117626,1009.374420 1285.463978,1011.012097 1283.165471,1023.967395 1273.819124,1022.329720"/>
    <poly id="410324840" type="building" color="255,230,230" fill="1" layer="-1.00" shape="1285.435656,1016.700287 1287.032816,1003.739743 1294.992629,1004.713900 1293.395374,1017.663377 1285.435656,1016.700287"/>
    <poly id="410324851" type="building" color="255,230,230" fill="1" layer="-1.00" shape="1267.349666,1030.627626 1269.525592,1021.103821 1287.047842,1025.052849 1284.871910,1034.576651 1267.349666,1030.627626"/>
    <poly id="410325391" type="building" color="255,230,230" fill="1" layer="-1.00" shape="1392.929535,1054.417934 1397.264392,1024.204853 1404.296465,1025.197804 1399.961601,1055.410883 1392.929535,1054.417934"/>
    <poly id="410325455" type="building" color="255,230,230" fill="1" layer="-1.00" shape="1468.642331,991.178352 1469.767791,983.776900 1496.763852,987.824585 1495.638385,995.226034 1468.642331,991.178352"/>
    <poly id="410325475" type="building" color="255,230,230" fill="1" layer="-1.00" shape="1591.611630,826.226792 1593.091576,817.328501 1629.900909,823.353331 1628.420950,832.251618 1591.611630,826.226792"/>
    <poly id="410325478" type="building" color="255,230,230" fill="1" layer="-1.00" shape="1633.371008,831.978227 1635.632555,821.048381 1656.750672,825.355203 1654.489209,836.296111 1633.371008,831.978227"/>
    <poly id="410325510" type="building" color="255,230,230" fill="1" layer="-1.00" shape="1669.840172,837.319835 1671.546248,828.364349 1681.844586,830.304144 1680.138506,839.259628 1669.840172,837.319835"/>
    <poly id="410325639" type="building" color="255,230,230" fill="1" layer="-1.00" shape="1857.783764,724.318046 1850.967281,711.571059 1862.719554,705.365376 1869.536032,718.112366 1857.783764,724.318046"/>