<?xml version="1.0" encoding="UTF-8"?>

<!-- generated on 2026-01-23 16:14:59 by Eclipse SUMO polyconvert Version 1.24.0
<polyconvertConfiguration xmlns:xsi="http://www.w3.org/2001/XMLSchema-instance" xsi:noNamespaceSchemaLocation="http://sumo.dlr.de/xsd/polyconvertConfiguration.xsd">

    <input>
        <osm-files value="network/banlic-mamatid.osm"/>
        <osm.keep-full-type value="true"/>
    </input>

    <output>
        <output-file value="additionals/banlic-mamatid.poly.xml"/>
    </output>

    <projection>
        <proj.scale value="1.00000"/>
        <proj.utm value="true"/>
        <proj.plain-geo value="true"/>
    </projection>

</polyconvertConfiguration>
-->

<additional xmlns:xsi="http://www.w3.org/2001/XMLSchema-instance" xsi:noNamespaceSchemaLocation="http://sumo.dlr.de/xsd/additional_file.xsd">
    <poly id="110484768" type="waterway.river" color="181,209,209" fill="0" layer="-4.000000" geo="1" shape="121.134897,14.224867 121.135020,14.224738 121.135237,14.224492 121.135475,14.223917 121.135736,14.223562 121.136069,14.223318 121.136327,14.223110 121.136535,14.222992 121.136742,14.222911 121.136819,14.222814 121.136865,14.222748 121.136871,14.222662 121.136747,14.222475 121.136741,14.222305 121.136960,14.222052"/>
    <poly id="110617664" type="landuse.industrial" color="209,209,204" fill="1" layer="-3.00" geo="1" shape="121.137899,14.221758 121.138216,14.221301 121.138301,14.221357 121.138668,14.221600 121.139463,14.222128 121.139524,14.222168 121.139813,14.223797 121.139950,14.224363 121.139969,14.225184 121.139814,14.225982 121.139674,14.226578 121.139634,14.226679 121.139517,14.226974 121.139362,14.227206 121.139311,14.227282 121.139026,14.227129 121.137467,14.226294 121.137014,14.226012 121.136841,14.225535 121.136017,14.225134 121.135564,14.225005 121.135324,14.224984 121.135732,14.224640 121.136434,14.223934 121.137868,14.223571 121.137983,14.223259 121.138074,14.223013 121.138133,14.222309 121.138194,14.222222 121.138226,14.222041 121.138182,14.221947 121.137899,14.221758"/>
    <poly id="110617706" type="landuse.residential" color="235,235,227" fill="1" layer="-3.00" geo="1" shape="121.140339,14.227613 121.140197,14.227712 121.139581,14.227482 121.139497,14.227585 121.139936,14.227773 121.140812,14.228023 121.144286,14.229043 121.144937,14.229632 121.145072,14.229753 121.145280,14.229344 121.145485,14.228873 121.145724,14.228048 121.145765,14.227886 121.145778,14.227853 121.145810,14.227660 121.145815,14.227630 121.142541,14.227417 121.140666,14.227320 121.140339,14.227613"/>
    <poly id="1175013861" type="landuse.retail" color="194,194,130" fill="1" layer="-3.00" geo="1" shape="121.142149,14.229929 121.142114,14.230039 121.141876,14.230782 121.141733,14.231229 121.142704,14.231531 121.142803,14.231289 121.143086,14.230595 121.143131,14.230484 121.142149,14.229929"/>
    <poly id="1175013861#1" type="shop.supermarket" color="237,199,255" fill="1" layer="-1.00" geo="1" shape="121.142149,14.229929 121.142114,14.230039 121.141876,14.230782 121.141733,14.231229 121.142704,14.231531 121.142803,14.231289 121.143086,14.230595 121.143131,14.230484 121.142149,14.229929"/>
    <poly id="1175013862" type="building.yes" color="255,230,230" fill="1" layer="-1.00" geo="1" shape="121.141876,14.230782 121.142803,14.231289 121.143086,14.230595 121.142114,14.230039 121.141876,14.230782"/>
    <poly id="120256292" type="natural.water" color="181,209,209" fill="1" layer="-4.00" geo="1" shape="121.177776,14.227567 121.177225,14.227506 121.176380,14.227459 121.175796,14.227343 121.175417,14.227165 121.175195,14.226988 121.173929,14.226721 121.173282,14.226658 121.172511,14.226726 121.171730,14.226753 121.170072,14.226968 121.169466,14.226974 121.168905,14.226857 121.168552,14.226651 121.168231,14.226422 121.167821,14.226061 121.167390,14.225800 121.166924,14.225611 121.166437,14.225424 121.165892,14.225224 121.165527,14.225078 121.165090,14.224620 121.164824,14.224117 121.164393,14.223643 121.164033,14.223457 121.163544,14.223539 121.162756,14.223661 121.162472,14.223668 121.162273,14.223671 121.162077,14.223533 121.161947,14.223445 121.161616,14.222958 121.161446,14.222561 121.161164,14.222134 121.161027,14.221854 121.160759,14.221533 121.160528,14.221287 121.160078,14.221143 121.159728,14.221250 121.159517,14.221443 121.159191,14.221806 121.158859,14.222025 121.158400,14.222277 121.158137,14.222333 121.157927,14.222290 121.157816,14.222151 121.157774,14.221825 121.157656,14.221336 121.157606,14.220958 121.157582,14.220775 121.157533,14.220563 121.157495,14.220400 121.157419,14.220250 121.157284,14.219986 121.157105,14.219670 121.156979,14.219447 121.156604,14.219073 121.155949,14.218679 121.155736,14.218517 121.155395,14.218512 121.155328,14.218543 121.154750,14.218504 121.153423,14.218814 121.152511,14.219646 121.152079,14.219946 121.151470,14.220067 121.151096,14.220115 121.151051,14.220117 121.150986,14.220084 121.150757,14.219973 121.150431,14.219893 121.150044,14.219804 121.149761,14.219681 121.149481,14.219505 121.149403,14.219268 121.149405,14.218812 121.149451,14.218605 121.149455,14.218054 121.149420,14.217700 121.149335,14.217436 121.149289,14.217250 121.149248,14.217090 121.149014,14.216869 121.148289,14.217075 121.147705,14.217301 121.147155,14.217506 121.146575,14.217940 121.146538,14.217997 121.146399,14.218204 121.145899,14.218415 121.146101,14.218999 121.146301,14.219604 121.146505,14.219766 121.146744,14.219703 121.147055,14.220054 121.147195,14.220288 121.147233,14.220554 121.147163,14.220850 121.147160,14.221086 121.146975,14.221217 121.146427,14.221400 121.145782,14.221378 121.145438,14.221211 121.145073,14.221076 121.144553,14.220855 121.143966,14.220608 121.143486,14.220361 121.143046,14.220201 121.142759,14.220096 121.142624,14.220046 121.142265,14.219880 121.141710,14.219755 121.141147,14.219833 121.140637,14.219890 121.140369,14.219984 121.140094,14.219949 121.139273,14.219769 121.139057,14.219722 121.138768,14.219661 121.138112,14.219700 121.137823,14.219750 121.137617,14.219877 121.137523,14.219942 121.137325,14.220079 121.137245,14.220169 121.137197,14.220336 121.137207,14.220615 121.137242,14.220807 121.137372,14.221098 121.137564,14.221389 121.137539,14.221556 121.137444,14.221692 121.137315,14.221851 121.137147,14.221929 121.136811,14.222028 121.136748,14.222130 121.136703,14.222225 121.136683,14.222341 121.136664,14.222424 121.136687,14.222507 121.136644,14.222528 121.136632,14.222590 121.136710,14.222680 121.136820,14.222735 121.136846,14.222804 121.136802,14.222869 121.136466,14.223003 121.136145,14.223189 121.135622,14.223638 121.135448,14.223878 121.135638,14.224003 121.135940,14.223627 121.136153,14.223466 121.136306,14.223350 121.136644,14.223101 121.136824,14.223036 121.136935,14.222936 121.136997,14.222749 121.136937,14.222610 121.136922,14.222374 121.137010,14.222243 121.137143,14.222191 121.137401,14.222036 121.137581,14.221816 121.137680,14.221722 121.137781,14.221541 121.137828,14.221412 121.137761,14.221295 121.137528,14.220690 121.137518,14.220540 121.137577,14.220437 121.137713,14.220285 121.137862,14.220191 121.138412,14.220028 121.138941,14.220034 121.139155,14.220187 121.139382,14.220261 121.139441,14.220266 121.140618,14.220270 121.141133,14.220190 121.141257,14.220156 121.141399,14.220158 121.141854,14.220252 121.142185,14.220291 121.142324,14.220317 121.143169,14.220603 121.144099,14.221112 121.144365,14.221244 121.144521,14.221320 121.145377,14.221471 121.145714,14.221599 121.146385,14.221515 121.146911,14.221367 121.147329,14.221092 121.147396,14.220551 121.147222,14.220065 121.146913,14.219461 121.146653,14.219467 121.146482,14.219423 121.146372,14.218986 121.146200,14.218583 121.146634,14.218221 121.146852,14.218057 121.147138,14.217821 121.147766,14.217530 121.148416,14.217280 121.148815,14.217140 121.149067,14.217199 121.149136,14.217599 121.149201,14.217786 121.149201,14.217955 121.149201,14.218195 121.149110,14.218583 121.149107,14.219162 121.149303,14.219675 121.149671,14.219911 121.150158,14.220126 121.150684,14.220281 121.151074,14.220367 121.151510,14.220303 121.152084,14.220166 121.152450,14.220067 121.152841,14.219727 121.153176,14.219543 121.153305,14.219279 121.153589,14.219043 121.154322,14.218874 121.154759,14.218747 121.155262,14.218840 121.155636,14.218877 121.156211,14.219165 121.156569,14.219474 121.157144,14.220275 121.157342,14.220845 121.157517,14.221797 121.157663,14.222295 121.157845,14.222438 121.158120,14.222487 121.158556,14.222425 121.159001,14.222177 121.159241,14.222072 121.159509,14.221975 121.159759,14.221669 121.159932,14.221457 121.160172,14.221508 121.160541,14.221744 121.160779,14.221897 121.160989,14.222429 121.161132,14.222729 121.161559,14.223390 121.161774,14.223715 121.162152,14.223856 121.162533,14.223936 121.162994,14.223908 121.163253,14.223878 121.163488,14.223851 121.163948,14.223738 121.164317,14.223943 121.164566,14.224246 121.164951,14.224846 121.165316,14.225150 121.165986,14.225486 121.167585,14.226156 121.168252,14.226727 121.168859,14.227056 121.169586,14.227176 121.171002,14.227095 121.172083,14.227038 121.173315,14.227023 121.173870,14.227057 121.174416,14.227168 121.174768,14.227212 121.175152,14.227344 121.175471,14.227545 121.176265,14.227799 121.177031,14.227911 121.177521,14.227927 121.177917,14.227932 121.179886,14.228300 121.180589,14.228445 121.181985,14.228818 121.183446,14.229219 121.184759,14.229605 121.186044,14.230153 121.186764,14.230668 121.187691,14.231436 121.187933,14.231575 121.188351,14.231778 121.188347,14.231724 121.188353,14.231674 121.188426,14.231512 121.188512,14.231304 121.188694,14.230966 121.188447,14.230930 121.188185,14.230805 121.187799,14.230602 121.186976,14.230007 121.186197,14.229617 121.185283,14.229262 121.184420,14.228983 121.183129,14.228663 121.181785,14.228325 121.180954,14.228149 121.180536,14.228051 121.180215,14.227960 121.179834,14.227913 121.179125,14.227805 121.178062,14.227589 121.177776,14.227567"/>
    <poly id="1220959099" type="landuse.residential" color="235,235,227" fill="1" layer="-3.00" geo="1" shape="121.139978,14.230784 121.140284,14.229975 121.141261,14.230344 121.140626,14.232059 121.139751,14.231707 121.140048,14.230863 121.139978,14.230784"/>
    <poly id="1224932658" type="landuse.residential" color="235,235,227" fill="1" layer="-3.00" geo="1" shape="121.141550,14.229470 121.142060,14.228353 121.143008,14.228617 121.144275,14.228997 121.144735,14.229351 121.144485,14.230113 121.144204,14.230031 121.143977,14.229960 121.143780,14.229826 121.143256,14.229540 121.143144,14.229448 121.143190,14.229281 121.142694,14.229117 121.142759,14.228922 121.142599,14.228879 121.142513,14.229068 121.142139,14.228982 121.141950,14.229340 121.141818,14.229622 121.141550,14.229470"/>
    <poly id="1239876225" type="amenity.college" color="237,199,199" fill="1" layer="-2.00" geo="1" shape="121.139835,14.226869 121.139864,14.226786 121.139876,14.226750 121.139891,14.226707 121.139995,14.226737 121.140080,14.226763 121.140084,14.226765 121.140088,14.226760 121.140161,14.226836 121.140020,14.226965 121.139962,14.226943 121.139965,14.226926 121.139831,14.226879 121.139835,14.226869"/>
    <poly id="1239876226" type="building.college" color="255,230,230" fill="1" layer="-1.00" geo="1" shape="121.139831,14.226879 121.139864,14.226786 121.139974,14.226827 121.139995,14.226737 121.140084,14.226765 121.140088,14.226760 121.140161,14.226836 121.140020,14.226965 121.139962,14.226943 121.139965,14.226926 121.139831,14.226879"/>
    <poly id="1310007185" type="building.commercial" color="255,230,230" fill="1" layer="-1.00" geo="1" shape="121.137861,14.229336 121.137810,14.229440 121.137945,14.229516 121.138008,14.229418 121.137861,14.229336"/>
    <poly id="134987073" type="landuse.residential" color="235,235,227" fill="1" layer="-3.00" geo="1" shape="121.138006,14.229154 121.138675,14.228196 121.138477,14.228103 121.136990,14.227332 121.136763,14.227690 121.135139,14.228703 121.135203,14.228917 121.135459,14.229181 121.136207,14.229732 121.136361,14.229908 121.136624,14.230021 121.136911,14.230112 121.137287,14.229608 121.137661,14.229797 121.137729,14.229709 121.137258,14.229442 121.137445,14.229133 121.137560,14.228942 121.138006,14.229154"/>
    <poly id="134987214" type="landuse.residential" color="235,235,227" fill="1" layer="-3.00" geo="1" shape="121.136017,14.225134 121.135792,14.225402 121.135532,14.226015 121.134873,14.226422 121.134798,14.227221 121.134506,14.228226 121.134621,14.228489 121.134935,14.228650 121.136192,14.228001 121.136741,14.227671 121.136999,14.227291 121.137467,14.226294 121.137014,14.226012 121.136841,14.225535 121.136017,14.225134"/>
    <poly id="134987236" type="landuse.residential" color="235,235,227" fill="1" layer="-3.00" geo="1" shape="121.136089,14.232635 121.136484,14.231880 121.136311,14.231714 121.136474,14.231537 121.136737,14.231689 121.137336,14.231907 121.138076,14.232216 121.137722,14.233291 121.136309,14.232723 121.136089,14.232635"/>
    <poly id="134987335" type="building.yes" color="255,230,230" fill="1" layer="-1.00" geo="1" shape="121.137453,14.229306 121.137557,14.229363 121.137738,14.229050 121.137634,14.228993 121.137453,14.229306"/>
    <poly id="134987340" type="building.yes" color="255,230,230" fill="1" layer="-1.00" geo="1" shape="121.137579,14.229369 121.137699,14.229433 121.137868,14.229134 121.137748,14.229070 121.137579,14.229369"/>
    <poly id="134987360" type="amenity.place_of_worship" color="237,199,199" fill="1" layer="-1.00" geo="1" shape="121.137258,14.229442 121.137445,14.229133 121.137560,14.228942 121.137896,14.229120 121.137656,14.229547 121.137783,14.229619 121.137729,14.229709 121.137258,14.229442"/>
    <poly id="186159861" type="amenity.townhall" color="237,199,199" fill="1" layer="-1.00" geo="1" shape="121.136725,14.231379 121.136659,14.231336 121.136625,14.231385 121.136692,14.231427 121.136725,14.231379"/>
    <poly id="186159861#1" type="building.yes" color="255,230,230" fill="1" layer="-1.00" geo="1" shape="121.136725,14.231379 121.136659,14.231336 121.136625,14.231385 121.136692,14.231427 121.136725,14.231379"/>
    <poly id="186159862" type="amenity.school" color="237,199,199" fill="1" layer="-2.00" geo="1" shape="121.136737,14.231689 121.136900,14.231323 121.136983,14.231333 121.136997,14.231292 121.137183,14.231375 121.137271,14.231207 121.137550,14.231311 121.137336,14.231907 121.136737,14.231689"/>
    <poly id="186159883" type="landuse.residential" color="235,235,227" fill="1" layer="-3.00" geo="1" shape="121.140140,14.225544 121.141018,14.226149 121.140856,14.226273 121.140701,14.226147 121.140417,14.226367 121.140522,14.226481 121.140171,14.226742 121.140106,14.226719 121.140304,14.226028 121.140334,14.225858 121.140091,14.225803 121.140140,14.225544"/>
    <poly id="186159884" type="building.yes" color="255,230,230" fill="1" layer="-1.00" geo="1" shape="121.139888,14.225150 121.139847,14.225233 121.139920,14.225267 121.139961,14.225185 121.139888,14.225150"/>
    <poly id="186159884#1" type="shop.convenience" color="237,199,255" fill="1" layer="-1.00" geo="1" shape="121.139888,14.225150 121.139847,14.225233 121.139920,14.225267 121.139961,14.225185 121.139888,14.225150"/>
    <poly id="186159948" type="landuse.garages" color="194,194,130" fill="1" layer="-3.00" geo="1" shape="121.138032,14.229739 121.138190,14.229505 121.138913,14.229890 121.138781,14.230139 121.138032,14.229739"/>
    <poly id="186159949" type="landuse.garages" color="194,194,130" fill="1" layer="-3.00" geo="1" shape="121.139086,14.229680 121.138397,14.229307 121.138303,14.229470 121.138993,14.229842 121.139086,14.229680"/>
    <poly id="341848659" type="landuse.retail" color="194,194,130" fill="1" layer="-3.00" geo="1" shape="121.135040,14.233223 121.135349,14.232553 121.135544,14.232261 121.135218,14.232028 121.135332,14.231842 121.135212,14.231772 121.134173,14.231774 121.134060,14.232068 121.133958,14.232335 121.133762,14.232848 121.133744,14.232903 121.135040,14.233223"/>
    <poly id="341848659#1" type="shop.mall" color="237,199,255" fill="1" layer="-1.00" geo="1" shape="121.135040,14.233223 121.135349,14.232553 121.135544,14.232261 121.135218,14.232028 121.135332,14.231842 121.135212,14.231772 121.134173,14.231774 121.134060,14.232068 121.133958,14.232335 121.133762,14.232848 121.133744,14.232903 121.135040,14.233223"/>
    <poly id="365035860" type="amenity.clinic" color="237,199,199" fill="1" layer="-2.00" geo="1" shape="121.135602,14.232216 121.135709,14.232086 121.135321,14.231866 121.135254,14.232021 121.135602,14.232216"/>
    <poly id="365035860#1" type="building.yes" color="255,230,230" fill="1" layer="-1.00" geo="1" shape="121.135602,14.232216 121.135709,14.232086 121.135321,14.231866 121.135254,14.232021 121.135602,14.232216"/>
    <poly id="365036018" type="building.commercial" color="255,230,230" fill="1" layer="-1.00" geo="1" shape="121.135770,14.231899 121.135786,14.231871 121.135843,14.231775 121.135963,14.231849 121.135865,14.231956 121.135770,14.231899"/>
    <poly id="365036232" type="building.yes" color="255,230,230" fill="1" layer="-1.00" geo="1" shape="121.138356,14.227750 121.138420,14.227651 121.138640,14.227778 121.139052,14.228028 121.139002,14.228093 121.138819,14.227984 121.138849,14.227933 121.138628,14.227808 121.138587,14.227875 121.138356,14.227750"/>
    <poly id="365036232#1" type="shop.supermarket" color="237,199,255" fill="1" layer="-1.00" geo="1" shape="121.138356,14.227750 121.138420,14.227651 121.138640,14.227778 121.139052,14.228028 121.139002,14.228093 121.138819,14.227984 121.138849,14.227933 121.138628,14.227808 121.138587,14.227875 121.138356,14.227750"/>
    <poly id="455431478" type="natural.water" color="181,209,209" fill="1" layer="-4.00" geo="1" shape="121.134584,14.229246 121.134284,14.228950 121.134233,14.228825 121.134217,14.228665 121.133991,14.228347 121.133959,14.228025 121.133938,14.227718 121.133863,14.227604 121.133911,14.227479 121.133857,14.226761 121.133874,14.226283 121.133766,14.226007 121.133691,14.225763 121.133766,14.225555 121.133750,14.225300 121.133797,14.225275 121.133965,14.225186 121.134201,14.225144 121.134453,14.225025 121.134668,14.224874 121.134963,14.224697 121.135139,14.224468 121.135284,14.224125 121.135448,14.223878 121.135638,14.224003 121.135526,14.224099 121.135354,14.224395 121.135080,14.224864 121.134615,14.225132 121.133937,14.225338 121.133925,14.225457 121.134012,14.225711 121.134037,14.225936 121.134088,14.226351 121.134024,14.226720 121.134024,14.227198 121.134040,14.227625 121.134077,14.227978 121.134131,14.228207 121.134254,14.228373 121.134389,14.228550 121.134517,14.228779 121.134646,14.228977 121.134721,14.229070 121.135083,14.229645 121.134584,14.229246"/>
    <poly id="516771260" type="landuse.retail" color="194,194,130" fill="1" layer="-3.00" geo="1" shape="121.139089,14.228167 121.138692,14.228765 121.139084,14.228984 121.139475,14.229228 121.139878,14.228625 121.139089,14.228167"/>
    <poly id="518175792" type="natural.wood" color="140,196,107" fill="1" layer="-4.00" geo="1" shape="121.128589,14.231028 121.129522,14.231257 121.130230,14.231652 121.131207,14.231673 121.132839,14.231404 121.133073,14.231528 121.133336,14.231485 121.133669,14.231231 121.133989,14.231274 121.134498,14.231151 121.134607,14.230984 121.134648,14.230801 121.134785,14.230738 121.135052,14.230708 121.135181,14.230498 121.135356,14.230726 121.135619,14.230785 121.135749,14.230578 121.135677,14.230326 121.135324,14.230124 121.135009,14.229777 121.134987,14.229809 121.134866,14.229983 121.134750,14.230150 121.134592,14.230378 121.133953,14.229666 121.133576,14.229082 121.131899,14.229498 121.131255,14.229611 121.129122,14.230664 121.128766,14.230838 121.128574,14.230834 121.128589,14.231028"/>
    <poly id="526609998" type="building.industrial" color="255,230,230" fill="1" layer="-1.00" geo="1" shape="121.136976,14.224918 121.137610,14.225268 121.138241,14.224193 121.137607,14.223843 121.136976,14.224918"/>
    <poly id="526609999" type="building.industrial" color="255,230,230" fill="1" layer="-1.00" geo="1" shape="121.138459,14.224027 121.138672,14.223599 121.139802,14.224219 121.139757,14.224307 121.139839,14.224363 121.139517,14.224929 121.139425,14.224879 121.139477,14.224779 121.138592,14.224297 121.138688,14.224139 121.138459,14.224027"/>
    <poly id="526610000" type="building.industrial" color="255,230,230" fill="1" layer="-1.00" geo="1" shape="121.138421,14.224344 121.138104,14.224833 121.139242,14.225526 121.139559,14.225038 121.138421,14.224344"/>
    <poly id="526610001" type="building.industrial" color="255,230,230" fill="1" layer="-1.00" geo="1" shape="121.137588,14.225477 121.137911,14.224912 121.139179,14.225613 121.138856,14.226157 121.137588,14.225477"/>
    <poly id="526610002" type="building.industrial" color="255,230,230" fill="1" layer="-1.00" geo="1" shape="121.137433,14.226135 121.137702,14.225657 121.138603,14.226134 121.138334,14.226612 121.137433,14.226135"/>
    <poly id="526610003" type="building.industrial" color="255,230,230" fill="1" layer="-1.00" geo="1" shape="121.139814,14.225982 121.139674,14.226578 121.138970,14.226193 121.139173,14.225871 121.139294,14.225678 121.139635,14.225881 121.139814,14.225982"/>
    <poly id="526610004" type="building.industrial" color="255,230,230" fill="1" layer="-1.00" geo="1" shape="121.139634,14.226679 121.139425,14.226578 121.138603,14.226134 121.138334,14.226612 121.139362,14.227206 121.139634,14.226679"/>
    <poly id="526610005" type="natural.wood" color="140,196,107" fill="1" layer="-4.00" geo="1" shape="121.139026,14.227129 121.138905,14.227353 121.138696,14.227238 121.138519,14.227561 121.137983,14.227259 121.137446,14.226952 121.137677,14.226458 121.139026,14.227129"/>
    <poly id="528595050" type="natural.scrub" color="140,196,107" fill="1" layer="-4.00" geo="1" shape="121.141142,14.240568 121.141629,14.240703 121.141779,14.240796 121.142022,14.241024 121.144338,14.235347 121.145145,14.233532 121.144835,14.233407 121.144814,14.233455 121.144128,14.233227 121.143732,14.233091 121.143903,14.232659 121.143219,14.232446 121.143394,14.231863 121.143801,14.230896 121.143131,14.230484 121.143086,14.230595 121.142803,14.231289 121.142704,14.231531 121.141733,14.231229 121.141876,14.230782 121.142114,14.230039 121.142149,14.229929 121.141538,14.229591 121.141261,14.230344 121.140631,14.232061 121.140626,14.232059 121.139751,14.231707 121.140052,14.230865 121.140048,14.230863 121.138781,14.230139 121.138032,14.229739 121.137799,14.230127 121.137777,14.230595 121.137550,14.231311 121.137336,14.231907 121.138076,14.232216 121.137722,14.233291 121.136309,14.232723 121.136093,14.232862 121.135759,14.233376 121.135598,14.233353 121.135436,14.233730 121.137965,14.234785 121.137813,14.234577 121.138430,14.234819 121.139172,14.232563 121.139604,14.232711 121.142394,14.233421 121.141497,14.236226 121.141660,14.236306 121.141014,14.238535 121.141751,14.238780 121.141142,14.240568"/>
    <poly id="530505548" type="natural.wood" color="140,196,107" fill="1" layer="-4.00" geo="1" shape="121.137983,14.223259 121.137668,14.223334 121.137169,14.223365 121.136987,14.223318 121.136498,14.223594 121.136153,14.223466 121.135940,14.223627 121.135638,14.224003 121.135526,14.224099 121.135354,14.224395 121.135080,14.224864 121.134615,14.225132 121.133937,14.225338 121.133925,14.225457 121.134012,14.225711 121.134037,14.225936 121.134088,14.226351 121.134024,14.226720 121.134024,14.227198 121.134040,14.227625 121.134077,14.227978 121.134131,14.228207 121.134254,14.228373 121.134389,14.228550 121.134517,14.228779 121.134613,14.228830 121.134720,14.228811 121.134908,14.228697 121.134935,14.228650 121.134621,14.228489 121.134506,14.228226 121.134798,14.227221 121.134873,14.226422 121.135532,14.226015 121.135792,14.225402 121.136017,14.225134 121.135564,14.225005 121.135324,14.224984 121.135732,14.224640 121.136434,14.223934 121.137868,14.223571 121.137983,14.223259"/>
    <poly id="530505549" type="building.industrial" color="255,230,230" fill="1" layer="-1.00" geo="1" shape="121.135715,14.224857 121.136397,14.225200 121.136563,14.224956 121.136461,14.224902 121.136001,14.224658 121.135887,14.224597 121.135715,14.224857"/>
    <poly id="530505550" type="building.industrial" color="255,230,230" fill="1" layer="-1.00" geo="1" shape="121.136001,14.224658 121.136327,14.224171 121.136751,14.224379 121.136461,14.224902 121.136001,14.224658"/>
    <poly id="530509957" type="building.industrial" color="255,230,230" fill="1" layer="-1.00" geo="1" shape="121.136729,14.225388 121.136976,14.224918 121.137610,14.225268 121.137485,14.225497 121.137713,14.225622 121.137702,14.225657 121.137433,14.226135 121.137086,14.225967 121.136957,14.225525 121.136729,14.225388"/>
    <poly id="530509958" type="building.industrial" color="255,230,230" fill="1" layer="-1.00" geo="1" shape="121.138014,14.223965 121.138285,14.224111 121.138561,14.223643 121.138290,14.223497 121.138014,14.223965"/>
    <poly id="530512487" type="natural.grassland" color="140,196,107" fill="1" layer="-4.00" geo="1" shape="121.140618,14.224089 121.140725,14.223977 121.140754,14.223985 121.140905,14.223824 121.141066,14.223889 121.141224,14.223821 121.141460,14.223959 121.141811,14.224209 121.142345,14.224599 121.142621,14.224740 121.142691,14.224776 121.142431,14.224976 121.142246,14.225111 121.142173,14.225116 121.141940,14.225033 121.140618,14.224089"/>
    <poly id="540100799" type="natural.scrub" color="140,196,107" fill="1" layer="-4.00" geo="1" shape="121.134636,14.220811 121.134779,14.220929 121.134938,14.220905 121.135128,14.220904 121.135335,14.221039 121.135499,14.221196 121.135569,14.221446 121.135663,14.221595 121.135745,14.221645 121.135821,14.221697 121.135960,14.221729 121.136082,14.221742 121.136223,14.221758 121.136449,14.221737 121.136551,14.221752 121.136682,14.221756 121.136774,14.221823 121.136845,14.221906 121.136811,14.222028 121.136748,14.222130 121.136703,14.222225 121.136683,14.222341 121.136664,14.222424 121.136687,14.222507 121.136644,14.222528 121.136632,14.222590 121.136710,14.222680 121.136820,14.222735 121.136846,14.222804 121.136802,14.222869 121.136466,14.223003 121.136145,14.223189 121.135622,14.223638 121.135448,14.223878 121.135139,14.224468 121.134963,14.224697 121.134668,14.224874 121.134453,14.225025 121.134201,14.225144 121.133965,14.225186 121.133797,14.225275 121.134089,14.224872 121.133686,14.224623 121.133574,14.224279 121.133150,14.224498 121.133322,14.224747 121.133027,14.225200 121.132930,14.225356 121.132479,14.225215 121.132410,14.224435 121.131845,14.224026 121.131868,14.223876 121.131918,14.223708 121.131951,14.223624 121.132161,14.223457 121.132387,14.223327 121.132061,14.223147 121.132105,14.222998 121.131920,14.222884 121.132123,14.222616 121.132339,14.222789 121.133035,14.222837 121.133294,14.222693 121.133442,14.222538 121.133756,14.222532 121.133959,14.222610 121.134252,14.222320 121.134384,14.221947 121.134360,14.221735 121.134274,14.221522 121.134397,14.221349 121.134754,14.221134 121.134748,14.221051 121.134569,14.220973 121.134636,14.220811"/>
    <poly id="549717128" type="waterway.ditch" color="181,209,209" fill="0" layer="-4.00" geo="1" shape="121.140133,14.227041 121.140384,14.227179 121.140575,14.227274 121.141081,14.227302 121.141518,14.227326 121.141844,14.227342 121.142306,14.227368 121.142699,14.227391 121.143053,14.227411 121.143425,14.227432 121.143959,14.227464 121.144181,14.227477 121.144518,14.227497 121.144848,14.227524 121.145297,14.227558 121.145925,14.227608 121.146157,14.227626"/>
    <poly id="557547241" type="natural.grassland" color="140,196,107" fill="1" layer="-4.00" geo="1" shape="121.142633,14.227323 121.143711,14.227381 121.143872,14.226975 121.143121,14.226569 121.142633,14.227323"/>
    <poly id="620648157" type="natural.grassland" color="140,196,107" fill="1" layer="-4.00" geo="1" shape="121.140211,14.226993 121.140513,14.227154 121.141516,14.227229 121.141595,14.226910 121.141252,14.226510 121.140844,14.226447 121.140678,14.226598 121.140211,14.226993"/>
    <poly id="683448526" type="amenity.parking" color="184,184,179" fill="1" layer="-1.00" geo="1" shape="121.139539,14.225439 121.139740,14.225152 121.139846,14.225207 121.139830,14.225237 121.139928,14.225287 121.139850,14.225605 121.139539,14.225439"/>
    <poly id="683448528" type="amenity.parking" color="184,184,179" fill="1" layer="-1.00" geo="1" shape="121.134267,14.232257 121.134465,14.232337 121.134484,14.232286 121.134602,14.232334 121.134589,14.232386 121.135207,14.232617 121.135144,14.232749 121.135267,14.232803 121.135569,14.232229 121.135189,14.232028 121.135218,14.231974 121.134935,14.231830 121.134471,14.231844 121.134357,14.231850 121.134350,14.231887 121.134245,14.231878 121.134248,14.231822 121.134185,14.231828 121.134091,14.232075 121.134274,14.232151 121.134310,14.232166 121.134267,14.232257"/>
    <poly id="754135357" type="landuse.brownfield" color="194,194,130" fill="1" layer="-3.00" geo="1" shape="121.135212,14.231772 121.134173,14.231774 121.134173,14.231767 121.134168,14.231662 121.134241,14.231662 121.134334,14.231605 121.134334,14.231566 121.134469,14.231590 121.134525,14.231543 121.134592,14.231514 121.134729,14.231506 121.134815,14.231522 121.135021,14.231504 121.135206,14.231561 121.135786,14.231871 121.135770,14.231899 121.135865,14.231956 121.135751,14.232073 121.135332,14.231842 121.135212,14.231772"/>
    <poly id="755176466" type="building.yes" color="255,230,230" fill="1" layer="-1.00" geo="1" shape="121.140232,14.225512 121.140315,14.225574 121.140405,14.225582 121.140430,14.225033 121.140245,14.224955 121.140232,14.225512"/>
    <poly id="790712588" type="building.school" color="255,230,230" fill="1" layer="-1.00" geo="1" shape="121.136975,14.231433 121.137127,14.231487 121.137159,14.231402 121.137008,14.231348 121.136975,14.231433"/>