<?xml version="1.0" encoding="UTF-8"?>

<!-- generated on 2025-10-07 21:10:13 by Eclipse SUMO netedit Version 1.24.0
-->

<additional xmlns:xsi="http://www.w3.org/2001/XMLSchema-instance" xsi:noNamespaceSchemaLocation="http://sumo.dlr.de/xsd/additional_file.xsd">
    <!-- Detectors -->
    <laneAreaDetector id="e2_0" lane="-1119486610#2_0" pos="13.19" length="4.00" period="300.00" file="e2_0.xml" friendlyPos="1"/>
    <laneAreaDetector id="e2_1" lane="1119486610#2_0" pos="0.00" length="4.00" period="300.00" file="e2_1.xml"/>
    <laneAreaDetector id="e2_10" lane="-140483171#1_1" pos="0.00" length="62.07" period="300.00" file="e2_10.xml"/>
    <laneAreaDetector id="e2_11" lane="1119486610#2_2" pos="4.00" length="8.00" period="300.00" file="e2_11.xml" friendlyPos="1"/>
    <laneAreaDetector id="e2_12" lane="1119486610#2_1" pos="4.00" length="8.00" period="300.00" file="e2_12.xml" friendlyPos="1"/>
    <laneAreaDetector id="e2_13" lane="777627649#1_1" pos="0.00" length="30.50" period="300.00" file="e2_13.xml" friendlyPos="1"/>
    <laneAreaDetector id="e2_14" lane="777627649#1_2" pos="0.00" length="30.50" period="300.00" file="e2_14.xml" friendlyPos="1"/>
    <laneAreaDetector id="e2_15" lane="-1119486605_1" pos="0.00" length="15.00" period="300.00" file="e2_15.xml" friendlyPos="1"/>
    <laneAreaDetector id="e2_16" lane="-1119486605_2" pos="0.00" length="15.00" period="300.00" file="e2_16.xml" friendlyPos="1"/>
    <laneAreaDetector id="e2_17" lane="1119486610#1_2" pos="0.00" length="18.00" period="300.00" file="e2_17.xml" friendlyPos="1"/>
    <laneAreaDetector id="e2_18" lane="1119486610#1_1" pos="0.00" length="18.00" period="300.00" file="e2_18.xml" friendlyPos="1"/>
    <laneAreaDetector id="e2_19" lane="-1119486610#2_1" pos="0.00" length="12.00" period="300.00" file="e2_19.xml" friendlyPos="1"/>
    <laneAreaDetector id="e2_2" lane="-1119486605_0" pos="25.63" length="4.00" period="300.00" file="e2_2.xml" friendlyPos="1"/>
    <laneAreaDetector id="e2_20" lane="-1119486610#2_2" pos="0.00" length="12.00" period="300.00" file="e2_20.xml" friendlyPos="1"/>
    <laneAreaDetector id="e2_21" lane="-777627656_1" pos="0.00" length="6.00" period="300.00" file="e2_21.xml"/>
    <laneAreaDetector id="e2_22" lane="-777627656_2" pos="0.00" length="6.00" period="300.00" file="e2_22.xml"/>
    <laneAreaDetector id="e2_23" lane="440471861#7_2" pos="1.00" length="19.94" period="300.00" file="e2_23.xml"/>
    <laneAreaDetector id="e2_24" lane="440471861#7_1" pos="1.00" length="20.46" period="300.00" file="e2_24.xml"/>
    <laneAreaDetector id="e2_27" lane="140483171#1_0" pos="0.00" length="5.00" period="300.00" file="e2_27.xml"/>
    <laneAreaDetector id="e2_28" lane="-140483171#1_0" pos="62.00" length="5.00" period="300.00" file="e2_28.xml" friendlyPos="1"/>
    <laneAreaDetector id="e2_29" lane="-777627649#1_0" pos="38.00" length="5.00" period="300.00" file="e2_29.xml" friendlyPos="1"/>
    <laneAreaDetector id="e2_3" lane="1119486605_0" pos="0.00" length="4.00" period="300.00" file="e2_3.xml"/>
    <laneAreaDetector id="e2_4" lane="440471861#8_1" pos="0.00" length="24.00" period="300.00" file="e2_4.xml" friendlyPos="1"/>
    <laneAreaDetector id="e2_5" lane="777627656_2" pos="0.00" length="6.00" period="300.00" file="e2_5.xml" friendlyPos="1"/>
    <laneAreaDetector id="e2_6" lane="440471861#8_2" pos="0.00" length="24.00" period="300.00" file="e2_6.xml" friendlyPos="1"/>
    <laneAreaDetector id="e2_7" lane="777627656_1" pos="0.00" length="6.00" period="300.00" file="e2_7.xml" friendlyPos="1"/>
    <laneAreaDetector id="e2_8" lane="-777627649#1_1" pos="0.00" length="30.50" period="300.00" file="e2_8.xml" friendlyPos="1"/>
    <laneAreaDetector id="e2_9" lane="-777627649#1_2" pos="0.00" length="30.50" period="300.00" file="e2_9.xml" friendlyPos="1"/>
</additional>
