<configuration>

<input>
<net-file value="map.net.xml"/>
<route-files value="demand.rou.xml"/>
</input>
<time>
<begin value="0">
<end value="2000">
</time>

</configuration>