<?xml version="1.0" encoding="UTF-8"?>

<!-- generated on 2025-10-27 10:41:02.273125 by randomTrips.py v1_24_0+0000-b72eb3fabc8
<configuration>
    <net-file value="map.net.xml"/>
    <route-file value="demand.rou.xml"/>
    <length value="True"/>
    <end value="50.0"/>
</configuration>
-->

<routes xmlns:xsi="http://www.w3.org/2001/XMLSchema-instance" xsi:noNamespaceSchemaLocation="http://sumo.dlr.de/xsd/routes_file.xsd">
    <trip id="0" depart="0.00" from="140483224#0" to="-114920907#1"/>
    <trip id="1" depart="1.00" from="-32083693#2" to="-140483252#1"/>
    <trip id="2" depart="2.00" from="140483254#2" to="140483230"/>
    <trip id="3" depart="3.00" from="440471861#3" to="-140483172"/>
    <trip id="4" depart="4.00" from="-93590599#1" to="-114920912"/>
    <trip id="5" depart="5.00" from="-140483254#2" to="114920907#0"/>
    <trip id="6" depart="6.00" from="-114920907#1" to="-140483224#2"/>
    <trip id="7" depart="7.00" from="140483224#0" to="114920912"/>
    <trip id="8" depart="8.00" from="-140483254#2" to="1298056754"/>
    <trip id="9" depart="9.00" from="32083693#0" to="-1120222500"/>
    <trip id="10" depart="10.00" from="32083693#0" to="140483252#0"/>
    <trip id="11" depart="11.00" from="-793339796#1" to="-140483224#0"/>
    <trip id="12" depart="12.00" from="93590599#0" to="-32083693#3"/>
    <trip id="13" depart="13.00" from="-123172359" to="-140483178#1"/>
    <trip id="14" depart="14.00" from="361257726" to="140483171#1"/>
    <trip id="15" depart="15.00" from="32083693#0" to="140483254#2"/>
    <trip id="16" depart="16.00" from="-92227616" to="114921270"/>
    <trip id="17" depart="17.00" from="32083750" to="140483178#3"/>
    <trip id="18" depart="18.00" from="361257727#0" to="123172358"/>
    <trip id="19" depart="19.00" from="140483252#1" to="-119709657"/>
    <trip id="20" depart="20.00" from="-141460516" to="-26955065#2"/>
    <trip id="21" depart="21.00" from="-123172358" to="-140483254#0"/>
    <trip id="22" depart="22.00" from="-1298056754" to="-145894807#1"/>
    <trip id="23" depart="23.00" from="140483224#0" to="-361257727#1"/>
    <trip id="24" depart="24.00" from="-894531889" to="-140483242#1"/>
    <trip id="25" depart="25.00" from="-26955065#3" to="92227616"/>
    <trip id="26" depart="26.00" from="140483224#0" to="140483178#1"/>
    <trip id="27" depart="27.00" from="-140483224#2" to="140483254#2"/>
    <trip id="28" depart="28.00" from="-140483224#1" to="-440471861#1"/>
    <trip id="29" depart="29.00" from="93687025" to="140483220"/>
    <trip id="30" depart="30.00" from="140483178#1" to="140483249#1"/>
    <trip id="31" depart="31.00" from="361257724" to="26955065#3"/>
    <trip id="32" depart="32.00" from="-141460516" to="-1162457542"/>
    <trip id="33" depart="33.00" from="-440471861#1" to="-145894807#0"/>
    <trip id="34" depart="34.00" from="-140483254#2" to="92227622#1"/>
    <trip id="35" depart="35.00" from="361260925#0" to="-32083693#0"/>
    <trip id="36" depart="36.00" from="140483224#1" to="-440471861#6"/>
    <trip id="37" depart="37.00" from="667982626" to="-93590607#2"/>
    <trip id="38" depart="38.00" from="-26955065#3" to="-140483254#2"/>
    <trip id="39" depart="39.00" from="140483178#1" to="-145894807#0"/>
    <trip id="40" depart="40.00" from="140483207" to="793339796#3"/>
    <trip id="41" depart="41.00" from="-92227622#1" to="-140483252#1"/>
    <trip id="42" depart="42.00" from="939610874" to="114920907#1"/>
    <trip id="43" depart="43.00" from="-123172358" to="-119709657"/>
    <trip id="44" depart="44.00" from="-140483171#1" to="140483178#5"/>
    <trip id="45" depart="45.00" from="32083693#0" to="-894523077"/>
    <trip id="46" depart="46.00" from="-114921270" to="-440471861#2"/>
    <trip id="47" depart="47.00" from="93687061#0" to="114920907#2"/>
    <trip id="48" depart="48.00" from="93590608" to="440471861#1"/>
    <trip id="49" depart="49.00" from="-1120222500" to="140483254#2"/>
</routes>
