<?xml version="1.0" encoding="UTF-8"?>

<!-- generated on 2026-01-23 15:01:18 by Eclipse SUMO polyconvert Version 1.24.0
<polyconvertConfiguration xmlns:xsi="http://www.w3.org/2001/XMLSchema-instance" xsi:noNamespaceSchemaLocation="http://sumo.dlr.de/xsd/polyconvertConfiguration.xsd">

    <input>
        <osm-files value="network/balibago.osm"/>
        <osm.keep-full-type value="true"/>
    </input>

    <output>
        <output-file value="network/balibao.poly.xml"/>
    </output>

    <projection>
        <proj.scale value="1.00000"/>
        <proj.utm value="true"/>
        <proj.plain-geo value="true"/>
    </projection>

</polyconvertConfiguration>
-->

<additional xmlns:xsi="http://www.w3.org/2001/XMLSchema-instance" xsi:noNamespaceSchemaLocation="http://sumo.dlr.de/xsd/additional_file.xsd">
    <poly id="1085449250" type="waterway.stream" color="181,209,209" fill="0" layer="-4.000000" geo="1" shape="121.102693,14.297210 121.102791,14.297263 121.103088,14.297397 121.103136,14.297420 121.103300,14.297477 121.103386,14.297506 121.103576,14.297576 121.103677,14.297611"/>
    <poly id="1085449251" type="waterway.stream" color="181,209,209" fill="0" layer="-4.00" geo="1" shape="121.103677,14.297611 121.103713,14.297624 121.103890,14.297685 121.104115,14.297765 121.104398,14.297837 121.104677,14.297886 121.104713,14.297892 121.104889,14.297880 121.105062,14.297862 121.105122,14.297859"/>
    <poly id="109522556" type="waterway.stream" color="181,209,209" fill="0" layer="-4.00" geo="1" shape="121.107130,14.299410 121.107213,14.299558 121.107209,14.299682 121.107295,14.299765 121.107320,14.299790 121.107439,14.299983 121.107491,14.300099 121.107509,14.300139 121.107616,14.300326 121.107779,14.300433 121.107994,14.300512"/>
    <poly id="1188549228" type="building.yes" color="255,230,230" fill="1" layer="-1.00" geo="1" shape="121.106829,14.294075 121.106815,14.294211 121.107014,14.294230 121.107017,14.294196 121.107160,14.294210 121.107170,14.294108 121.106829,14.294075"/>
    <poly id="1188549229" type="building.yes" color="255,230,230" fill="1" layer="-1.00" geo="1" shape="121.106703,14.294219 121.106771,14.294236 121.106794,14.294148 121.106727,14.294131 121.106703,14.294219"/>
    <poly id="1188549230" type="amenity.fuel" color="237,199,199" fill="1" layer="-1.00" geo="1" shape="121.106631,14.294120 121.106611,14.294186 121.106696,14.294211 121.106717,14.294145 121.106631,14.294120"/>
    <poly id="1332735814" type="building.yes" color="255,230,230" fill="1" layer="-1.00" geo="1" shape="121.104047,14.299980 121.104156,14.300018 121.104208,14.299881 121.104243,14.299849 121.104254,14.299812 121.104236,14.299765 121.104197,14.299732 121.104158,14.299729 121.104119,14.299744 121.104098,14.299782 121.104091,14.299730 121.103668,14.299763 121.103663,14.299874 121.104089,14.299854 121.104047,14.299980"/>
    <poly id="1332735815" type="building.yes" color="255,230,230" fill="1" layer="-1.00" geo="1" shape="121.103765,14.299978 121.104031,14.299983 121.104149,14.300027 121.104130,14.300209 121.103774,14.300209 121.103765,14.299978"/>
    <poly id="135398946" type="landuse.residential" color="235,235,227" fill="1" layer="-3.00" geo="1" shape="121.111767,14.298906 121.111590,14.300326 121.111555,14.300468 121.111499,14.300464 121.111122,14.300437 121.111126,14.300292 121.110760,14.300232 121.109923,14.300151 121.109298,14.299900 121.108814,14.299914 121.108741,14.300127 121.108626,14.300119 121.108414,14.300171 121.107956,14.300487 121.107687,14.300299 121.107542,14.300075 121.107889,14.299826 121.107900,14.299650 121.108107,14.299526 121.108220,14.298935 121.108396,14.298479 121.108797,14.298555 121.109053,14.298680 121.109135,14.298720 121.109113,14.299058 121.109112,14.299059 121.109479,14.299137 121.109620,14.299112 121.110013,14.298918 121.110166,14.298807 121.110221,14.298518 121.110383,14.298471 121.110410,14.298474 121.110493,14.298482 121.110795,14.298603 121.110793,14.298608 121.110720,14.298767 121.110928,14.298821 121.111767,14.298906"/>
    <poly id="135399001" type="natural.water" color="181,209,209" fill="1" layer="-4.00" geo="1" shape="121.104615,14.299585 121.104703,14.299585 121.105064,14.299570 121.105448,14.299516 121.105857,14.299495 121.106155,14.299480 121.106327,14.299446 121.106452,14.299442 121.106523,14.299436 121.106659,14.299411 121.106794,14.299408 121.106802,14.299379 121.106844,14.299362 121.106710,14.299365 121.106578,14.299359 121.106289,14.299378 121.105980,14.299378 121.105599,14.299422 121.105363,14.299430 121.105058,14.299476 121.104744,14.299473 121.104663,14.299472 121.104504,14.299458 121.104388,14.299442 121.104084,14.299442 121.103061,14.299453 121.102966,14.299462 121.102859,14.299488 121.102678,14.299521 121.102472,14.299482 121.102469,14.299505 121.102472,14.299533 121.102692,14.299599 121.102925,14.299552 121.103134,14.299534 121.103395,14.299578 121.103590,14.299575 121.103956,14.299556 121.104457,14.299557 121.104615,14.299585"/>
    <poly id="140350764" type="building.yes" color="255,230,230" fill="1" layer="-1.00" geo="1" shape="121.104826,14.293353 121.104852,14.293003 121.104818,14.292993 121.104850,14.292771 121.105112,14.292810 121.105154,14.293065 121.105210,14.293106 121.105140,14.293370 121.105122,14.293434 121.104826,14.293353"/>
    <poly id="140350764#1" type="shop.supermarket" color="237,199,255" fill="1" layer="-1.00" geo="1" shape="121.104826,14.293353 121.104852,14.293003 121.104818,14.292993 121.104850,14.292771 121.105112,14.292810 121.105154,14.293065 121.105210,14.293106 121.105140,14.293370 121.105122,14.293434 121.104826,14.293353"/>
    <poly id="140351110" type="building.yes" color="255,230,230" fill="1" layer="-1.00" geo="1" shape="121.104727,14.293832 121.104841,14.293867 121.104894,14.293708 121.104813,14.293683 121.104780,14.293673 121.104727,14.293832"/>
    <poly id="140351110#1" type="shop.convenience" color="237,199,255" fill="1" layer="-1.00" geo="1" shape="121.104727,14.293832 121.104841,14.293867 121.104894,14.293708 121.104813,14.293683 121.104780,14.293673 121.104727,14.293832"/>
    <poly id="145507714" type="landuse.residential" color="235,235,227" fill="1" layer="-3.00" geo="1" shape="121.095878,14.291741 121.096178,14.291841 121.096138,14.291954 121.096508,14.292084 121.099015,14.292962 121.099184,14.292644 121.099858,14.293312 121.100728,14.294470 121.100945,14.294622 121.100751,14.294953 121.100233,14.294676 121.100289,14.294229 121.099769,14.294162 121.099160,14.293976 121.098146,14.293719 121.097791,14.293553 121.097391,14.293366 121.097262,14.293305 121.097042,14.293220 121.096709,14.293091 121.095976,14.292808 121.095661,14.292589 121.095878,14.291741"/>
    <poly id="148546458" type="building.yes" color="255,230,230" fill="1" layer="-1.00" geo="1" shape="121.104677,14.294592 121.104772,14.294504 121.104998,14.294566 121.104960,14.294716 121.104915,14.294716 121.104837,14.294770 121.104677,14.294592"/>
    <poly id="148546458#1" type="shop.hifi" color="237,199,255" fill="1" layer="-1.00" geo="1" shape="121.104677,14.294592 121.104772,14.294504 121.104998,14.294566 121.104960,14.294716 121.104915,14.294716 121.104837,14.294770 121.104677,14.294592"/>
    <poly id="148919813" type="building.yes" color="255,230,230" fill="1" layer="-1.00" geo="1" shape="121.103981,14.294569 121.104229,14.294666 121.104379,14.294303 121.104131,14.294206 121.103981,14.294569"/>
    <poly id="185601420" type="amenity.school" color="237,199,199" fill="1" layer="-2.00" geo="1" shape="121.103998,14.296762 121.104401,14.296967 121.104805,14.296231 121.104582,14.296112 121.104410,14.296024 121.104253,14.296303 121.104147,14.296493 121.103998,14.296762"/>
    <poly id="185601423" type="amenity.place_of_worship" color="237,199,199" fill="1" layer="-1.00" geo="1" shape="121.105707,14.294318 121.105950,14.294391 121.105972,14.294322 121.106084,14.294356 121.106066,14.294412 121.106080,14.294416 121.106148,14.294437 121.106051,14.294743 121.105970,14.294719 121.105981,14.294684 121.105866,14.294650 121.105877,14.294613 121.105636,14.294541 121.105665,14.294453 121.105707,14.294318"/>
    <poly id="185601423#1" type="building.yes" color="255,230,230" fill="1" layer="-1.00" geo="1" shape="121.105707,14.294318 121.105950,14.294391 121.105972,14.294322 121.106084,14.294356 121.106066,14.294412 121.106080,14.294416 121.106148,14.294437 121.106051,14.294743 121.105970,14.294719 121.105981,14.294684 121.105866,14.294650 121.105877,14.294613 121.105636,14.294541 121.105665,14.294453 121.105707,14.294318"/>
    <poly id="185601426" type="amenity.place_of_worship" color="237,199,199" fill="1" layer="-1.00" geo="1" shape="121.105193,14.296202 121.105296,14.296240 121.105441,14.295870 121.105338,14.295832 121.105193,14.296202"/>
    <poly id="185601426#1" type="building.yes" color="255,230,230" fill="1" layer="-1.00" geo="1" shape="121.105193,14.296202 121.105296,14.296240 121.105441,14.295870 121.105338,14.295832 121.105193,14.296202"/>
    <poly id="185601434" type="building.yes" color="255,230,230" fill="1" layer="-1.00" geo="1" shape="121.104077,14.296645 121.104173,14.296695 121.104291,14.296484 121.104196,14.296434 121.104077,14.296645"/>
    <poly id="185601435" type="building.yes" color="255,230,230" fill="1" layer="-1.00" geo="1" shape="121.104295,14.296471 121.104400,14.296278 121.104305,14.296230 121.104200,14.296422 121.104295,14.296471"/>
    <poly id="185601436" type="building.yes" color="255,230,230" fill="1" layer="-1.00" geo="1" shape="121.104312,14.296227 121.104404,14.296270 121.104483,14.296115 121.104390,14.296071 121.104312,14.296227"/>
    <poly id="185601437" type="building.yes" color="255,230,230" fill="1" layer="-1.00" geo="1" shape="121.104518,14.296548 121.104602,14.296591 121.104796,14.296237 121.104712,14.296194 121.104518,14.296548"/>
    <poly id="185601438" type="building.roof" color="255,230,230" fill="1" layer="-1.00" geo="1" shape="121.106156,14.293708 121.106235,14.293465 121.105694,14.293299 121.105615,14.293542 121.106156,14.293708"/>
    <poly id="185601440" type="building.yes" color="255,230,230" fill="1" layer="-1.00" geo="1" shape="121.104192,14.294758 121.103936,14.294620 121.103865,14.294744 121.104121,14.294882 121.104192,14.294758"/>
    <poly id="185601441" type="building.yes" color="255,230,230" fill="1" layer="-1.00" geo="1" shape="121.104320,14.296898 121.104406,14.296944 121.104586,14.296631 121.104500,14.296585 121.104320,14.296898"/>
    <poly id="185601442" type="building.yes" color="255,230,230" fill="1" layer="-1.00" geo="1" shape="121.104479,14.296291 121.104434,14.296357 121.104557,14.296436 121.104602,14.296370 121.104479,14.296291"/>
    <poly id="185601443" type="building.yes" color="255,230,230" fill="1" layer="-1.00" geo="1" shape="121.104078,14.296664 121.104026,14.296751 121.104138,14.296814 121.104190,14.296726 121.104078,14.296664"/>
    <poly id="185601444" type="building.yes" color="255,230,230" fill="1" layer="-1.00" geo="1" shape="121.104537,14.296275 121.104610,14.296312 121.104681,14.296180 121.104608,14.296143 121.104537,14.296275"/>
    <poly id="185601445" type="building.yes" color="255,230,230" fill="1" layer="-1.00" geo="1" shape="121.104322,14.296804 121.104199,14.296737 121.104152,14.296818 121.104275,14.296885 121.104322,14.296804"/>
    <poly id="185601446" type="building.yes" color="255,230,230" fill="1" layer="-1.00" geo="1" shape="121.104235,14.296615 121.104392,14.296705 121.104551,14.296444 121.104394,14.296354 121.104235,14.296615"/>
    <poly id="185601447" type="building.yes" color="255,230,230" fill="1" layer="-1.00" geo="1" shape="121.104213,14.296715 121.104328,14.296780 121.104373,14.296704 121.104258,14.296639 121.104213,14.296715"/>
    <poly id="185601454" type="landuse.residential" color="235,235,227" fill="1" layer="-3.00" geo="1" shape="121.104219,14.295069 121.104045,14.295319 121.103899,14.295552 121.105353,14.296327 121.105510,14.295761 121.105571,14.295439 121.105460,14.295429 121.105503,14.295295 121.105468,14.295278 121.105511,14.295037 121.105535,14.294909 121.105367,14.294854 121.105233,14.294816 121.104969,14.294739 121.104826,14.294793 121.104748,14.294712 121.104445,14.294942 121.104219,14.295069"/>
    <poly id="185601698" type="landuse.retail" color="194,194,130" fill="1" layer="-3.00" geo="1" shape="121.106565,14.294261 121.106767,14.294312 121.106826,14.294098 121.106795,14.294090 121.106717,14.294070 121.106624,14.294046 121.106565,14.294261"/>
    <poly id="185977006" type="building.yes" color="255,230,230" fill="1" layer="-1.00" geo="1" shape="121.104705,14.298931 121.104824,14.298638 121.104792,14.298636 121.104708,14.298629 121.104583,14.298931 121.104705,14.298931"/>
    <poly id="185977050" type="landuse.greenfield" color="242,242,204" fill="1" layer="-3.00" geo="1" shape="121.102834,14.300783 121.102855,14.300710 121.103127,14.299746 121.104472,14.299696 121.104191,14.300414 121.103704,14.300409 121.103555,14.300825 121.103329,14.300765 121.103262,14.301014 121.102912,14.300925 121.102951,14.300807 121.102834,14.300783"/>
    <poly id="185977051" type="landuse.garages" color="194,194,130" fill="1" layer="-3.00" geo="1" shape="121.106532,14.298691 121.106575,14.298526 121.106560,14.298391 121.105238,14.298000 121.105186,14.298165 121.105760,14.298389 121.106532,14.298691"/>
    <poly id="185977054" type="landuse.retail" color="194,194,130" fill="1" layer="-3.00" geo="1" shape="121.104583,14.298931 121.104386,14.298935 121.104353,14.299178 121.104622,14.299216 121.104723,14.298966 121.104705,14.298931 121.104583,14.298931"/>
    <poly id="185977054#1" type="tourism.motel" color="207,245,201" fill="1" layer="-2.00" geo="1" shape="121.104583,14.298931 121.104386,14.298935 121.104353,14.299178 121.104622,14.299216 121.104723,14.298966 121.104705,14.298931 121.104583,14.298931"/>
    <poly id="185977056" type="landuse.construction" color="194,194,130" fill="1" layer="-3.00" geo="1" shape="121.106426,14.298955 121.105690,14.298618 121.105233,14.298410 121.105173,14.298608 121.105282,14.298654 121.105313,14.298750 121.105902,14.298901 121.106375,14.299118 121.106426,14.298955"/>
    <poly id="237210691" type="landuse.residential" color="235,235,227" fill="1" layer="-3.00" geo="1" shape="121.109704,14.295011 121.110281,14.294785 121.110372,14.295051 121.110798,14.294984 121.110746,14.295694 121.110870,14.295702 121.110991,14.295809 121.111499,14.295747 121.111465,14.296304 121.111178,14.296289 121.111172,14.296469 121.110782,14.296462 121.110698,14.296569 121.110458,14.296499 121.110332,14.296495 121.109224,14.296173 121.108757,14.296080 121.107926,14.295933 121.107678,14.295859 121.107656,14.295814 121.107202,14.296032 121.106804,14.296031 121.106761,14.295958 121.106669,14.295959 121.106408,14.295961 121.106145,14.295771 121.106136,14.295553 121.106146,14.295454 121.106429,14.295487 121.106498,14.295386 121.106679,14.295410 121.106782,14.295461 121.106875,14.295471 121.106925,14.295418 121.107230,14.295433 121.107451,14.295369 121.107648,14.295242 121.107889,14.295271 121.108411,14.295274 121.108418,14.295147 121.109357,14.294921 121.109481,14.295064 121.109704,14.295011"/>
    <poly id="237335456" type="waterway.stream" color="181,209,209" fill="0" layer="-4.00" geo="1" shape="121.094416,14.297307 121.094462,14.297283 121.094485,14.297252 121.094570,14.297134 121.094586,14.297008 121.094620,14.296885 121.094662,14.296742 121.094690,14.296643 121.094742,14.296532 121.094781,14.296391 121.094820,14.296286 121.094853,14.296178 121.094890,14.296094 121.095051,14.296016 121.095300,14.296007 121.095476,14.296023 121.095647,14.296027 121.095886,14.296046 121.096129,14.296082 121.096381,14.296111 121.096566,14.296137 121.096668,14.296152 121.096984,14.296185 121.097220,14.296208 121.097472,14.296225 121.097594,14.296232 121.097780,14.296231 121.098135,14.296206 121.098411,14.296202 121.098800,14.296186 121.099277,14.296185 121.099517,14.296204 121.099751,14.296253 121.100049,14.296334 121.100313,14.296403 121.100500,14.296456 121.100833,14.296555 121.100974,14.296583 121.101189,14.296628 121.101377,14.296673 121.101681,14.296735 121.101932,14.296805 121.102102,14.296864 121.102185,14.296909 121.102313,14.296994 121.102441,14.297077 121.102645,14.297184 121.102693,14.297210"/>
    <poly id="309858098" type="landuse.residential" color="235,235,227" fill="1" layer="-3.00" geo="1" shape="121.098743,14.290216 121.098562,14.290202 121.098404,14.290026 121.098369,14.289898 121.098011,14.289849 121.097977,14.288236 121.098072,14.287985 121.098335,14.287505 121.098397,14.287313 121.098256,14.286096 121.100221,14.286168 121.100234,14.285944 121.100498,14.285916 121.100696,14.285686 121.100774,14.285603 121.100928,14.285381 121.101361,14.285265 121.101424,14.285334 121.101850,14.285589 121.102651,14.285631 121.102768,14.285177 121.104568,14.285559 121.105904,14.285542 121.105864,14.286258 121.105439,14.286183 121.105276,14.286182 121.105153,14.286184 121.105040,14.286214 121.104904,14.286320 121.104950,14.286352 121.104949,14.286426 121.104921,14.286452 121.104996,14.287422 121.104940,14.287421 121.104667,14.288603 121.104767,14.288619 121.105256,14.288689 121.105334,14.288321 121.105484,14.288289 121.105602,14.288645 121.105897,14.288720 121.106017,14.288885 121.106226,14.289223 121.106219,14.289299 121.106189,14.289647 121.106176,14.289793 121.106743,14.289864 121.106762,14.289650 121.107045,14.289706 121.107065,14.289937 121.107001,14.290147 121.106728,14.291017 121.107102,14.291100 121.107029,14.291359 121.107121,14.291382 121.107064,14.291620 121.107020,14.291726 121.107117,14.291773 121.107063,14.291941 121.106828,14.292616 121.106554,14.293242 121.106412,14.293504 121.105344,14.293178 121.105112,14.292810 121.104828,14.292694 121.104976,14.291883 121.104517,14.291055 121.104322,14.290912 121.104232,14.290906 121.104017,14.290892 121.103826,14.290793 121.103353,14.290481 121.103190,14.290394 121.102781,14.290243 121.102913,14.289733 121.102354,14.289516 121.102381,14.289307 121.102314,14.289315 121.101732,14.289435 121.101654,14.289358 121.101587,14.289383 121.101661,14.289652 121.101631,14.289706 121.101392,14.289891 121.101120,14.289963 121.101105,14.290050 121.099532,14.290132 121.099427,14.290240 121.098743,14.290216"/>
    <poly id="310222821" type="building.industrial" color="255,230,230" fill="1" layer="-1.00" geo="1" shape="121.101455,14.291567 121.101021,14.291993 121.101068,14.292038 121.100906,14.292197 121.100847,14.292141 121.100824,14.292163 121.100859,14.292196 121.100826,14.292229 121.100919,14.292316 121.100194,14.293034 121.099646,14.292515 121.099895,14.292269 121.100030,14.292398 121.100767,14.291668 121.100841,14.291738 121.100997,14.291584 121.100965,14.291554 121.100986,14.291533 121.100930,14.291480 121.101065,14.291346 121.101207,14.291481 121.101285,14.291405 121.101455,14.291567"/>
    <poly id="310222822" type="building.industrial" color="255,230,230" fill="1" layer="-1.00" geo="1" shape="121.100797,14.293589 121.100493,14.293302 121.100579,14.293217 121.100429,14.293074 121.100949,14.292563 121.100890,14.292507 121.100985,14.292413 121.101035,14.292460 121.101075,14.292420 121.100954,14.292304 121.101805,14.291467 121.102065,14.291716 121.101788,14.291987 121.101996,14.292186 121.102125,14.292059 121.102214,14.292143 121.101890,14.292488 121.100797,14.293589"/>
    <poly id="310222823" type="building.industrial" color="255,230,230" fill="1" layer="-1.00" geo="1" shape="121.100797,14.293589 121.101070,14.293860 121.101678,14.293254 121.101711,14.293285 121.101853,14.293142 121.101892,14.293178 121.101920,14.293149 121.101868,14.293101 121.101968,14.292999 121.102055,14.292641 121.101890,14.292488 121.100797,14.293589"/>
    <poly id="310222825" type="building.industrial" color="255,230,230" fill="1" layer="-1.00" geo="1" shape="121.100022,14.291990 121.100116,14.291894 121.100024,14.291809 121.099936,14.291899 121.099741,14.291719 121.100251,14.291201 121.100306,14.291253 121.100324,14.291235 121.100392,14.291297 121.100368,14.291321 121.100435,14.291383 121.100463,14.291354 121.100573,14.291456 121.100662,14.291365 121.100573,14.291283 121.100605,14.291250 121.100781,14.291412 121.100727,14.291467 121.100760,14.291497 121.100155,14.292113 121.100022,14.291990"/>
    <poly id="32082945" type="landuse.industrial" color="209,209,204" fill="1" layer="-3.00" geo="1" shape="121.098458,14.291414 121.096729,14.290376 121.096895,14.289802 121.098011,14.289849 121.098369,14.289898 121.098404,14.290026 121.098562,14.290202 121.098743,14.290216 121.099427,14.290240 121.099532,14.290132 121.101105,14.290050 121.101120,14.289963 121.101392,14.289891 121.101631,14.289706 121.101661,14.289652 121.101587,14.289383 121.101654,14.289358 121.101732,14.289435 121.102314,14.289315 121.102364,14.289305 121.102381,14.289307 121.102354,14.289516 121.102913,14.289733 121.102781,14.290243 121.102759,14.290388 121.102491,14.291639 121.102314,14.292029 121.102222,14.292217 121.101933,14.293238 121.101882,14.293461 121.101482,14.294205 121.101070,14.293860 121.100797,14.293589 121.100493,14.293302 121.100194,14.293034 121.099646,14.292515 121.098749,14.291662 121.098458,14.291414"/>
    <poly id="32083023" type="building.yes" color="255,230,230" fill="1" layer="-1.00" geo="1" shape="121.102774,14.293342 121.102992,14.292437 121.102521,14.292330 121.102303,14.293235 121.102774,14.293342"/>
    <poly id="32083023#1" type="shop.supermarket" color="237,199,255" fill="1" layer="-1.00" geo="1" shape="121.102774,14.293342 121.102992,14.292437 121.102521,14.292330 121.102303,14.293235 121.102774,14.293342"/>
    <poly id="32424613" type="landuse.retail" color="194,194,130" fill="1" layer="-3.00" geo="1" shape="121.104111,14.293816 121.103997,14.294155 121.103869,14.294442 121.103566,14.294946 121.103491,14.295050 121.103417,14.295155 121.102816,14.294834 121.103458,14.293703 121.103888,14.293778 121.104111,14.293816"/>
    <poly id="32424613#1" type="shop.mall" color="237,199,255" fill="1" layer="-1.00" geo="1" shape="121.104111,14.293816 121.103997,14.294155 121.103869,14.294442 121.103566,14.294946 121.103491,14.295050 121.103417,14.295155 121.102816,14.294834 121.103458,14.293703 121.103888,14.293778 121.104111,14.293816"/>
    <poly id="33298756" type="building.yes" color="255,230,230" fill="1" layer="-1.00" geo="1" shape="121.103185,14.293436 121.103404,14.292530 121.102992,14.292437 121.102774,14.293342 121.103185,14.293436"/>
    <poly id="33298756#1" type="shop.supermarket" color="237,199,255" fill="1" layer="-1.00" geo="1" shape="121.103185,14.293436 121.103404,14.292530 121.102992,14.292437 121.102774,14.293342 121.103185,14.293436"/>
    <poly id="369858825" type="building.yes" color="255,230,230" fill="1" layer="-1.00" geo="1" shape="121.104064,14.293229 121.104012,14.293449 121.103969,14.293630 121.103812,14.293595 121.103906,14.293194 121.104064,14.293229"/>
    <poly id="447794412" type="building.retail" color="255,230,230" fill="1" layer="-1.00" geo="1" shape="121.105117,14.298999 121.104991,14.298952 121.104894,14.299217 121.104980,14.299219 121.105025,14.299233 121.105117,14.298999"/>
    <poly id="447794413" type="building.retail" color="255,230,230" fill="1" layer="-1.00" geo="1" shape="121.105626,14.296397 121.105723,14.296147 121.105455,14.296072 121.105353,14.296327 121.105626,14.296397"/>
    <poly id="447794414" type="building.retail" color="255,230,230" fill="1" layer="-1.00" geo="1" shape="121.105138,14.298687 121.105164,14.298596 121.105158,14.298507 121.105095,14.298507 121.105035,14.298671 121.105138,14.298687"/>
    <poly id="447794414#1" type="shop.motorcycle" color="237,199,255" fill="1" layer="-1.00" geo="1" shape="121.105138,14.298687 121.105164,14.298596 121.105158,14.298507 121.105095,14.298507 121.105035,14.298671 121.105138,14.298687"/>
    <poly id="447794415" type="amenity.school" color="237,199,199" fill="1" layer="-2.00" geo="1" shape="121.105606,14.294244 121.105731,14.293767 121.105803,14.293790 121.105919,14.293829 121.106230,14.293985 121.106117,14.294349 121.105606,14.294244"/>
    <poly id="447794416" type="amenity.bank" color="237,199,199" fill="1" layer="-1.00" geo="1" shape="121.105822,14.295516 121.105778,14.295535 121.105738,14.295534 121.105730,14.295550 121.105655,14.295543 121.105662,14.295459 121.105827,14.295477 121.105822,14.295516"/>
    <poly id="447794416#1" type="building.commercial" color="255,230,230" fill="1" layer="-1.00" geo="1" shape="121.105822,14.295516 121.105778,14.295535 121.105738,14.295534 121.105730,14.295550 121.105655,14.295543 121.105662,14.295459 121.105827,14.295477 121.105822,14.295516"/>
    <poly id="447794418" type="building.retail" color="255,230,230" fill="1" layer="-1.00" geo="1" shape="121.104792,14.298636 121.104819,14.298554 121.104720,14.298533 121.104688,14.298632 121.104708,14.298629 121.104792,14.298636"/>
    <poly id="515126468" type="building.yes" color="255,230,230" fill="1" layer="-1.00" geo="1" shape="121.104802,14.300246 121.105638,14.300157 121.105627,14.300015 121.105609,14.299678 121.105575,14.299584 121.104706,14.299642 121.104725,14.299975 121.104800,14.299981 121.104802,14.300246"/>
    <poly id="522696521" type="natural.grassland" color="140,196,107" fill="1" layer="-4.00" geo="1" shape="121.109404,14.293886 121.109704,14.295011 121.109481,14.295064 121.109357,14.294921 121.108418,14.295147 121.108411,14.295274 121.107889,14.295271 121.107648,14.295242 121.107502,14.294739 121.107813,14.294677 121.107792,14.294511 121.108071,14.294433 121.108076,14.294126 121.109404,14.293886"/>
    <poly id="524307639" type="amenity.fast_food" color="237,199,199" fill="1" layer="-1.00" geo="1" shape="121.104238,14.297120 121.104415,14.296977 121.105014,14.297138 121.105076,14.297152 121.105318,14.297200 121.105254,14.297374 121.104238,14.297120"/>
    <poly id="524307639#1" type="landuse.retail" color="194,194,130" fill="1" layer="-3.00" geo="1" shape="121.104238,14.297120 121.104415,14.296977 121.105014,14.297138 121.105076,14.297152 121.105318,14.297200 121.105254,14.297374 121.104238,14.297120"/>
    <poly id="524307640" type="building.yes" color="255,230,230" fill="1" layer="-1.00" geo="1" shape="121.104895,14.297282 121.104914,14.297202 121.104995,14.297220 121.105012,14.297148 121.105014,14.297138 121.105076,14.297152 121.105074,14.297163 121.105067,14.297192 121.105143,14.297209 121.105123,14.297297 121.105105,14.297293 121.105097,14.297327 121.104895,14.297282"/>
    <poly id="524307641" type="building.yes" color="255,230,230" fill="1" layer="-1.00" geo="1" shape="121.105084,14.297618 121.105113,14.297522 121.105202,14.297537 121.105172,14.297639 121.105084,14.297618"/>
    <poly id="530157544" type="building.yes" color="255,230,230" fill="1" layer="-1.00" geo="1" shape="121.100879,14.299976 121.100970,14.299746 121.101474,14.299936 121.101397,14.300171 121.100879,14.299976"/>
    <poly id="530157545" type="building.yes" color="255,230,230" fill="1" layer="-1.00" geo="1" shape="121.101013,14.299624 121.101112,14.299422 121.101580,14.299605 121.101496,14.299821 121.101013,14.299624"/>
    <poly id="530157545#1" type="leisure.pitch" color="207,245,201" fill="1" layer="-2.00" geo="1" shape="121.101013,14.299624 121.101112,14.299422 121.101580,14.299605 121.101496,14.299821 121.101013,14.299624"/>
    <poly id="530157545#2" type="sport.badminton" color="79,230,125" fill="1" layer="-2.00" geo="1" shape="121.101013,14.299624 121.101112,14.299422 121.101580,14.299605 121.101496,14.299821 121.101013,14.299624"/>
    <poly id="532685280" type="building.yes" color="255,230,230" fill="1" layer="-1.00" geo="1" shape="121.105690,14.298618 121.105760,14.298389 121.106532,14.298691 121.106480,14.298868 121.106426,14.298955 121.105690,14.298618"/>
    <poly id="532685281" type="building.yes" color="255,230,230" fill="1" layer="-1.00" geo="1" shape="121.105233,14.294816 121.105367,14.294854 121.105415,14.294699 121.105291,14.294663 121.105249,14.294707 121.105233,14.294816"/>
    <poly id="540615686" type="building.yes" color="255,230,230" fill="1" layer="-1.00" geo="1" shape="121.105627,14.300015 121.105996,14.299994 121.105967,14.299644 121.105609,14.299678 121.105627,14.300015"/>
    <poly id="542845005" type="building.yes" color="255,230,230" fill="1" layer="-1.00" geo="1" shape="121.104701,14.294002 121.104965,14.294082 121.104926,14.294206 121.104655,14.294125 121.104701,14.294002"/>
    <poly id="542845006" type="building.yes" color="255,230,230" fill="1" layer="-1.00" geo="1" shape="121.104618,14.294254 121.104655,14.294125 121.104926,14.294206 121.104878,14.294339 121.104618,14.294254"/>
    <poly id="542845007" type="building.yes" color="255,230,230" fill="1" layer="-1.00" geo="1" shape="121.104926,14.294206 121.105085,14.294245 121.105133,14.294109 121.104977,14.294063 121.104926,14.294206"/>
    <poly id="542845008" type="amenity.fast_food" color="237,199,199" fill="1" layer="-1.00" geo="1" shape="121.104813,14.293683 121.104848,14.293526 121.105081,14.293595 121.105046,14.293744 121.104813,14.293683"/>
    <poly id="542845008#1" type="building.yes" color="255,230,230" fill="1" layer="-1.00" geo="1" shape="121.104813,14.293683 121.104848,14.293526 121.105081,14.293595 121.105046,14.293744 121.104813,14.293683"/>
    <poly id="542845009" type="building.yes" color="255,230,230" fill="1" layer="-1.00" geo="1" shape="121.103915,14.293125 121.104076,14.293157 121.104083,14.293127 121.104200,14.292675 121.104080,14.292646 121.104021,14.292687 121.103915,14.293125"/>
    <poly id="542845010" type="building.yes" color="255,230,230" fill="1" layer="-1.00" geo="1" shape="121.104083,14.293127 121.104139,14.293140 121.104169,14.293023 121.104542,14.293109 121.104561,14.293238 121.104574,14.293327 121.104488,14.293587 121.104614,14.293615 121.104696,14.293423 121.104687,14.293228 121.104683,14.293142 121.104673,14.293027 121.104635,14.293019 121.104667,14.292864 121.104657,14.292821 121.104623,14.292770 121.104204,14.292660 121.104200,14.292675 121.104083,14.293127"/>