<?xml version="1.0" encoding="UTF-8"?>

<!-- generated on 2025-12-04 00:36:12 by Eclipse SUMO sumo Version 1.24.0
<sumoConfiguration xmlns:xsi="http://www.w3.org/2001/XMLSchema-instance" xsi:noNamespaceSchemaLocation="http://sumo.dlr.de/xsd/sumoConfiguration.xsd">

    <input>
        <net-file value="Olivarez_traci\network/map1.net.xml"/>
        <route-files value="Olivarez_traci\demand/flows_slow_traffic.rou.xml"/>
        <additional-files value="Olivarez_traci\additionals/map.poly.xml,Olivarez_traci\ additionals/detectors.add.xml"/>
    </input>

    <output>
        <tripinfo-output value="Olivarez_traci\output_DDPG\SD_DDPG_trips.xml"/>
        <statistic-output value="Olivarez_traci\output_DDPG\SD_DDPG_stats.xml"/>
    </output>

    <time>
        <begin value="0"/>
        <end value="10800"/>
        <step-length value="0.05"/>
    </time>

    <processing>
        <lateral-resolution value="0.1"/>
        <collision.action value="none"/>
        <collision.check-junctions value="false"/>
        <collision.mingap-factor value="0"/>
    </processing>

    <report>
        <no-warnings value="true"/>
    </report>

    <traci_server>
        <remote-port value="58845"/>
    </traci_server>

    <gui_only>
        <delay value="0"/>
    </gui_only>

</sumoConfiguration>
-->

<statistics xmlns:xsi="http://www.w3.org/2001/XMLSchema-instance" xsi:noNamespaceSchemaLocation="http://sumo.dlr.de/xsd/statistic_file.xsd">
    <performance clockBegin="34309.12" clockEnd="35307.71" clockDuration="998.59" traciDuration="202.26" realTimeFactor="4.23" vehicleUpdatesPerSecond="4450.13" personUpdatesPerSecond="3376.50" begin="0.00" end="4228.40" duration="4228.40"/>
    <vehicles loaded="965" inserted="965" running="0" waiting="0"/>
    <teleports total="1" jam="0" yield="1" wrongLane="0"/>
    <safety collisions="0" emergencyStops="2" emergencyBraking="2"/>
    <persons loaded="640" running="0" jammed="0"/>
    <personTeleports total="0" abortWait="0" wrongDest="0"/>
    <vehicleTripStatistics count="965" routeLength="1266.75" speed="7.94" duration="230.25" waitingTime="134.40" timeLoss="165.37" departDelay="4.40" departDelayWaiting="-1.00" totalTravelTime="222191.80" totalDepartDelay="4245.25"/>
    <pedestrianStatistics number="960" routeLength="159.98" duration="175.61" timeLoss="60.25"/>
    <rideStatistics number="0"/>
    <transportStatistics number="0"/>
</statistics>
