<?xml version="1.0" encoding="UTF-8"?>

<!-- generated on 2025-12-03 23:22:53 by Eclipse SUMO sumo Version 1.24.0
<sumoConfiguration xmlns:xsi="http://www.w3.org/2001/XMLSchema-instance" xsi:noNamespaceSchemaLocation="http://sumo.dlr.de/xsd/sumoConfiguration.xsd">

    <input>
        <net-file value="Olivarez_traci\network/map1.net.xml"/>
        <route-files value="Olivarez_traci\demand/flows_traffic_jam.rou.xml"/>
        <additional-files value="Olivarez_traci\additionals/map.poly.xml,Olivarez_traci\ additionals/detectors.add.xml"/>
    </input>

    <output>
        <tripinfo-output value="Olivarez_traci\output_DDPG\SD_DDPG_trips.xml"/>
        <statistic-output value="Olivarez_traci\output_DDPG\SD_DDPG_stats.xml"/>
    </output>

    <time>
        <begin value="0"/>
        <end value="10800"/>
        <step-length value="0.05"/>
    </time>

    <processing>
        <lateral-resolution value="0.1"/>
        <collision.action value="none"/>
        <collision.check-junctions value="false"/>
        <collision.mingap-factor value="0"/>
    </processing>

    <report>
        <no-warnings value="true"/>
    </report>

    <traci_server>
        <remote-port value="59056"/>
    </traci_server>

    <gui_only>
        <delay value="0"/>
    </gui_only>

</sumoConfiguration>
-->

<statistics xmlns:xsi="http://www.w3.org/2001/XMLSchema-instance" xsi:noNamespaceSchemaLocation="http://sumo.dlr.de/xsd/statistic_file.xsd">
    <performance clockBegin="29910.68" clockEnd="31820.70" clockDuration="1910.03" traciDuration="241.92" realTimeFactor="2.20" vehicleUpdatesPerSecond="5683.15" personUpdatesPerSecond="1777.48" begin="0.00" end="4207.20" duration="4207.20"/>
    <vehicles loaded="1627" inserted="1627" running="0" waiting="0"/>
    <teleports total="5" jam="1" yield="4" wrongLane="0"/>
    <safety collisions="0" emergencyStops="3" emergencyBraking="12"/>
    <persons loaded="744" running="0" jammed="2"/>
    <personTeleports total="0" abortWait="0" wrongDest="0"/>
    <vehicleTripStatistics count="1627" routeLength="1285.22" speed="6.11" duration="333.59" waitingTime="214.97" timeLoss="266.10" departDelay="113.41" departDelayWaiting="-1.00" totalTravelTime="542748.25" totalDepartDelay="184518.50"/>
    <pedestrianStatistics number="1224" routeLength="133.21" duration="138.69" timeLoss="42.90"/>
    <rideStatistics number="0"/>
    <transportStatistics number="0"/>
</statistics>
