<?xml version="1.0" encoding="UTF-8"?>

<!-- generated on 2025-11-17 22:30:31 by Eclipse SUMO activitygen Version 1.24.0
<activitygenConfiguration xmlns:xsi="http://www.w3.org/2001/XMLSchema-instance" xsi:noNamespaceSchemaLocation="http://sumo.dlr.de/xsd/activitygenConfiguration.xsd">

    <input>
        <net-file value="Olivarez_traci\network\map.net.xml"/>
        <stat-file value="Olivarez_traci\demand\my_city.stat.xml"/>
    </input>

    <output>
        <output-file value="Olivarez_traci\demand\activitygen-example.trips.rou.xml"/>
    </output>

    <random_number>
        <random value="true"/>
    </random_number>

</activitygenConfiguration>
-->

<routes xmlns:xsi="http://www.w3.org/2001/XMLSchema-instance" xsi:noNamespaceSchemaLocation="http://sumo.dlr.de/xsd/routes_file.xsd">
    <vType id="default" vClass="passenger" color="red"/>
    <vType id="random" vClass="passenger" color="blue"/>
    <vType id="bus" vClass="bus" color="green"/>

    <trip id="blStaRosaToPacitab1:1" type="bus" depart="0.00" departPos="0.00" arrivalPos="0.00" arrivalSpeed="0.00" from="-793339796#3" to="-793339796#3"/>
    <trip id="blStaRosaToPacitab2:15" type="bus" depart="0.00" departPos="0.00" arrivalPos="31.40" arrivalSpeed="0.00" from="-793339796#1" via="-361256298#0 -440471861#5" to="-440471861#0"/>
    <trip id="blPacitaToStaRosab1:1" type="bus" depart="0.00" departPos="0.00" arrivalPos="0.00" arrivalSpeed="0.00" from="440471861#0" to="440471861#0"/>
    <trip id="blPacitaToStaRosab2:15" type="bus" depart="0.00" departPos="40.00" arrivalPos="232.20" arrivalSpeed="0.00" from="440471861#5" via="361256298#0 793339796#1" to="793339796#3"/>
    <trip id="blGMACARtoBinanb1:1" type="bus" depart="0.00" departPos="0.00" arrivalPos="0.00" arrivalSpeed="0.00" from="140483224#0" to="140483224#0"/>
    <trip id="blGMACARtoBinanb2:15" type="bus" depart="0.00" departPos="260.90" arrivalPos="260.90" arrivalSpeed="0.00" from="-145894807#0" to="-145894807#0"/>
    <trip id="blBinantoGMACARb1:1" type="bus" depart="0.00" departPos="0.00" arrivalPos="0.00" arrivalSpeed="0.00" from="361257727#0" to="361257727#0"/>
    <trip id="blBinantoGMACARb2:15" type="bus" depart="0.00" departPos="1075.80" arrivalPos="1075.80" arrivalSpeed="0.00" from="-140483224#0" to="-140483224#0"/>
    <trip id="blGMAtoOlib1:1" type="bus" depart="0.00" departPos="0.00" arrivalPos="0.00" arrivalSpeed="0.00" from="140483224#0" to="140483224#0"/>
    <trip id="blGMAtoOlib2:15" type="bus" depart="0.00" departPos="0.00" arrivalPos="0.00" arrivalSpeed="0.00" from="1119486610#0" to="1119486610#0"/>
    <trip id="blOlitoGMAb1:1" type="bus" depart="0.00" departPos="0.00" arrivalPos="0.00" arrivalSpeed="0.00" from="894583375" to="894583375"/>
    <trip id="blOlitoGMAb2:15" type="bus" depart="0.00" departPos="1075.80" arrivalPos="1075.80" arrivalSpeed="0.00" from="-140483224#0" to="-140483224#0"/>
    <trip id="blCarmonatoOlib1:1" type="bus" depart="0.00" departPos="0.00" arrivalPos="0.00" arrivalSpeed="0.00" from="140483224#0" to="140483224#0"/>
    <trip id="blCarmonatoOlib2:15" type="bus" depart="0.00" departPos="0.00" arrivalPos="0.00" arrivalSpeed="0.00" from="1119486607" to="1119486607"/>
    <trip id="blOlitoCarmonab1:1" type="bus" depart="0.00" departPos="0.00" arrivalPos="0.00" arrivalSpeed="0.00" from="1119486607" to="1119486607"/>
    <trip id="blOlitoCarmonab2:15" type="bus" depart="0.00" departPos="1075.80" arrivalPos="1075.80" arrivalSpeed="0.00" from="-140483224#0" to="-140483224#0"/>
    <trip id="blStaRosaToPacitab3:1" type="bus" depart="300.00" departPos="0.00" arrivalPos="0.00" arrivalSpeed="0.00" from="-793339796#3" to="-793339796#3"/>
    <trip id="blStaRosaToPacitab4:15" type="bus" depart="300.00" departPos="0.00" arrivalPos="31.40" arrivalSpeed="0.00" from="-793339796#1" via="-361256298#0 -440471861#5" to="-440471861#0"/>
    <trip id="blPacitaToStaRosab3:1" type="bus" depart="300.00" departPos="0.00" arrivalPos="0.00" arrivalSpeed="0.00" from="440471861#0" to="440471861#0"/>
    <trip id="blPacitaToStaRosab4:15" type="bus" depart="300.00" departPos="40.00" arrivalPos="232.20" arrivalSpeed="0.00" from="440471861#5" via="361256298#0 793339796#1" to="793339796#3"/>
    <trip id="carIn50:1" type="default" depart="379.00" departPos="30.00" arrivalPos="42.00" arrivalSpeed="0.00" from="440471861#0" to="793339796#1"/>
    <trip id="blStaRosaToPacitab5:1" type="bus" depart="600.00" departPos="0.00" arrivalPos="0.00" arrivalSpeed="0.00" from="-793339796#3" to="-793339796#3"/>
    <trip id="blStaRosaToPacitab6:15" type="bus" depart="600.00" departPos="0.00" arrivalPos="31.40" arrivalSpeed="0.00" from="-793339796#1" via="-361256298#0 -440471861#5" to="-440471861#0"/>
    <trip id="blPacitaToStaRosab5:1" type="bus" depart="600.00" departPos="0.00" arrivalPos="0.00" arrivalSpeed="0.00" from="440471861#0" to="440471861#0"/>
    <trip id="blPacitaToStaRosab6:15" type="bus" depart="600.00" departPos="40.00" arrivalPos="232.20" arrivalSpeed="0.00" from="440471861#5" via="361256298#0 793339796#1" to="793339796#3"/>
    <trip id="blGMACARtoBinanb3:1" type="bus" depart="600.00" departPos="0.00" arrivalPos="0.00" arrivalSpeed="0.00" from="140483224#0" to="140483224#0"/>
    <trip id="blGMACARtoBinanb4:15" type="bus" depart="600.00" departPos="260.90" arrivalPos="260.90" arrivalSpeed="0.00" from="-145894807#0" to="-145894807#0"/>
    <trip id="blBinantoGMACARb3:1" type="bus" depart="600.00" departPos="0.00" arrivalPos="0.00" arrivalSpeed="0.00" from="361257727#0" to="361257727#0"/>
    <trip id="blBinantoGMACARb4:15" type="bus" depart="600.00" departPos="1075.80" arrivalPos="1075.80" arrivalSpeed="0.00" from="-140483224#0" to="-140483224#0"/>
    <trip id="carIn98:1" type="default" depart="629.00" departPos="30.00" arrivalPos="10.51" arrivalSpeed="0.00" from="361257727#0" to="793339796#1"/>
    <trip id="randUni99:1" type="random" depart="682.00" departPos="36.26" arrivalPos="16.09" arrivalSpeed="0.00" from="92227622#1" to="777627654"/>
    <trip id="blStaRosaToPacitab7:1" type="bus" depart="900.00" departPos="0.00" arrivalPos="0.00" arrivalSpeed="0.00" from="-793339796#3" to="-793339796#3"/>
    <trip id="blStaRosaToPacitab8:15" type="bus" depart="900.00" departPos="0.00" arrivalPos="31.40" arrivalSpeed="0.00" from="-793339796#1" via="-361256298#0 -440471861#5" to="-440471861#0"/>
    <trip id="blPacitaToStaRosab7:1" type="bus" depart="900.00" departPos="0.00" arrivalPos="0.00" arrivalSpeed="0.00" from="440471861#0" to="440471861#0"/>
    <trip id="blPacitaToStaRosab8:15" type="bus" depart="900.00" departPos="40.00" arrivalPos="232.20" arrivalSpeed="0.00" from="440471861#5" via="361256298#0 793339796#1" to="793339796#3"/>
    <trip id="randUni79:1" type="random" depart="929.00" departPos="34.28" arrivalPos="23.55" arrivalSpeed="0.00" from="-140483254#3" to="140483224#4"/>
    <trip id="blStaRosaToPacitab9:1" type="bus" depart="1200.00" departPos="0.00" arrivalPos="0.00" arrivalSpeed="0.00" from="-793339796#3" to="-793339796#3"/>
    <trip id="blStaRosaToPacitab10:15" type="bus" depart="1200.00" departPos="0.00" arrivalPos="31.40" arrivalSpeed="0.00" from="-793339796#1" via="-361256298#0 -440471861#5" to="-440471861#0"/>
    <trip id="blPacitaToStaRosab9:1" type="bus" depart="1200.00" departPos="0.00" arrivalPos="0.00" arrivalSpeed="0.00" from="440471861#0" to="440471861#0"/>
    <trip id="blPacitaToStaRosab10:15" type="bus" depart="1200.00" departPos="40.00" arrivalPos="232.20" arrivalSpeed="0.00" from="440471861#5" via="361256298#0 793339796#1" to="793339796#3"/>
    <trip id="blGMACARtoBinanb5:1" type="bus" depart="1200.00" departPos="0.00" arrivalPos="0.00" arrivalSpeed="0.00" from="140483224#0" to="140483224#0"/>
    <trip id="blGMACARtoBinanb6:15" type="bus" depart="1200.00" departPos="260.90" arrivalPos="260.90" arrivalSpeed="0.00" from="-145894807#0" to="-145894807#0"/>
    <trip id="blBinantoGMACARb5:1" type="bus" depart="1200.00" departPos="0.00" arrivalPos="0.00" arrivalSpeed="0.00" from="361257727#0" to="361257727#0"/>
    <trip id="blBinantoGMACARb6:15" type="bus" depart="1200.00" departPos="1075.80" arrivalPos="1075.80" arrivalSpeed="0.00" from="-140483224#0" to="-140483224#0"/>
    <trip id="blGMAtoOlib3:1" type="bus" depart="1200.00" departPos="0.00" arrivalPos="0.00" arrivalSpeed="0.00" from="140483224#0" to="140483224#0"/>
    <trip id="blGMAtoOlib4:15" type="bus" depart="1200.00" departPos="0.00" arrivalPos="0.00" arrivalSpeed="0.00" from="1119486610#0" to="1119486610#0"/>
    <trip id="blOlitoGMAb3:1" type="bus" depart="1200.00" departPos="0.00" arrivalPos="0.00" arrivalSpeed="0.00" from="894583375" to="894583375"/>
    <trip id="blOlitoGMAb4:15" type="bus" depart="1200.00" departPos="1075.80" arrivalPos="1075.80" arrivalSpeed="0.00" from="-140483224#0" to="-140483224#0"/>
    <trip id="blCarmonatoOlib3:1" type="bus" depart="1200.00" departPos="0.00" arrivalPos="0.00" arrivalSpeed="0.00" from="140483224#0" to="140483224#0"/>
    <trip id="blCarmonatoOlib4:15" type="bus" depart="1200.00" departPos="0.00" arrivalPos="0.00" arrivalSpeed="0.00" from="1119486607" to="1119486607"/>
    <trip id="blOlitoCarmonab3:1" type="bus" depart="1200.00" departPos="0.00" arrivalPos="0.00" arrivalSpeed="0.00" from="1119486607" to="1119486607"/>
    <trip id="blOlitoCarmonab4:15" type="bus" depart="1200.00" departPos="1075.80" arrivalPos="1075.80" arrivalSpeed="0.00" from="-140483224#0" to="-140483224#0"/>
    <trip id="blStaRosaToPacitab11:1" type="bus" depart="1500.00" departPos="0.00" arrivalPos="0.00" arrivalSpeed="0.00" from="-793339796#3" to="-793339796#3"/>
    <trip id="blStaRosaToPacitab12:15" type="bus" depart="1500.00" departPos="0.00" arrivalPos="31.40" arrivalSpeed="0.00" from="-793339796#1" via="-361256298#0 -440471861#5" to="-440471861#0"/>
    <trip id="blPacitaToStaRosab11:1" type="bus" depart="1500.00" departPos="0.00" arrivalPos="0.00" arrivalSpeed="0.00" from="440471861#0" to="440471861#0"/>
    <trip id="blPacitaToStaRosab12:15" type="bus" depart="1500.00" departPos="40.00" arrivalPos="232.20" arrivalSpeed="0.00" from="440471861#5" via="361256298#0 793339796#1" to="793339796#3"/>
    <trip id="carIn43:1" type="default" depart="1563.00" departPos="0.00" arrivalPos="15.96" arrivalSpeed="0.00" from="140483224#0" to="793339796#1"/>
    <trip id="blStaRosaToPacitab13:1" type="bus" depart="1800.00" departPos="0.00" arrivalPos="0.00" arrivalSpeed="0.00" from="-793339796#3" to="-793339796#3"/>
    <trip id="blStaRosaToPacitab14:15" type="bus" depart="1800.00" departPos="0.00" arrivalPos="31.40" arrivalSpeed="0.00" from="-793339796#1" via="-361256298#0 -440471861#5" to="-440471861#0"/>
    <trip id="blPacitaToStaRosab13:1" type="bus" depart="1800.00" departPos="0.00" arrivalPos="0.00" arrivalSpeed="0.00" from="440471861#0" to="440471861#0"/>
    <trip id="blPacitaToStaRosab14:15" type="bus" depart="1800.00" departPos="40.00" arrivalPos="232.20" arrivalSpeed="0.00" from="440471861#5" via="361256298#0 793339796#1" to="793339796#3"/>
    <trip id="blGMACARtoBinanb7:1" type="bus" depart="1800.00" departPos="0.00" arrivalPos="0.00" arrivalSpeed="0.00" from="140483224#0" to="140483224#0"/>
    <trip id="blGMACARtoBinanb8:15" type="bus" depart="1800.00" departPos="260.90" arrivalPos="260.90" arrivalSpeed="0.00" from="-145894807#0" to="-145894807#0"/>
    <trip id="blBinantoGMACARb7:1" type="bus" depart="1800.00" departPos="0.00" arrivalPos="0.00" arrivalSpeed="0.00" from="361257727#0" to="361257727#0"/>
    <trip id="blBinantoGMACARb8:15" type="bus" depart="1800.00" departPos="1075.80" arrivalPos="1075.80" arrivalSpeed="0.00" from="-140483224#0" to="-140483224#0"/>
    <trip id="carIn8:1" type="default" depart="2099.00" departPos="30.00" arrivalPos="56.56" arrivalSpeed="0.00" from="440471861#0" to="777627654"/>
    <trip id="blStaRosaToPacitab15:1" type="bus" depart="2100.00" departPos="0.00" arrivalPos="0.00" arrivalSpeed="0.00" from="-793339796#3" to="-793339796#3"/>
    <trip id="blStaRosaToPacitab16:15" type="bus" depart="2100.00" departPos="0.00" arrivalPos="31.40" arrivalSpeed="0.00" from="-793339796#1" via="-361256298#0 -440471861#5" to="-440471861#0"/>
    <trip id="blPacitaToStaRosab15:1" type="bus" depart="2100.00" departPos="0.00" arrivalPos="0.00" arrivalSpeed="0.00" from="440471861#0" to="440471861#0"/>
    <trip id="blPacitaToStaRosab16:15" type="bus" depart="2100.00" departPos="40.00" arrivalPos="232.20" arrivalSpeed="0.00" from="440471861#5" via="361256298#0 793339796#1" to="793339796#3"/>
    <trip id="blStaRosaToPacitab17:1" type="bus" depart="2400.00" departPos="0.00" arrivalPos="0.00" arrivalSpeed="0.00" from="-793339796#3" to="-793339796#3"/>
    <trip id="blStaRosaToPacitab18:15" type="bus" depart="2400.00" departPos="0.00" arrivalPos="31.40" arrivalSpeed="0.00" from="-793339796#1" via="-361256298#0 -440471861#5" to="-440471861#0"/>
    <trip id="blPacitaToStaRosab17:1" type="bus" depart="2400.00" departPos="0.00" arrivalPos="0.00" arrivalSpeed="0.00" from="440471861#0" to="440471861#0"/>
    <trip id="blPacitaToStaRosab18:15" type="bus" depart="2400.00" departPos="40.00" arrivalPos="232.20" arrivalSpeed="0.00" from="440471861#5" via="361256298#0 793339796#1" to="793339796#3"/>
    <trip id="blGMACARtoBinanb9:1" type="bus" depart="2400.00" departPos="0.00" arrivalPos="0.00" arrivalSpeed="0.00" from="140483224#0" to="140483224#0"/>
    <trip id="blGMACARtoBinanb10:13" type="bus" depart="2400.00" departPos="260.90" arrivalPos="260.90" arrivalSpeed="0.00" from="-145894807#0" to="-145894807#0"/>
    <trip id="blBinantoGMACARb9:1" type="bus" depart="2400.00" departPos="0.00" arrivalPos="0.00" arrivalSpeed="0.00" from="361257727#0" to="361257727#0"/>
    <trip id="blBinantoGMACARb10:13" type="bus" depart="2400.00" departPos="1075.80" arrivalPos="1075.80" arrivalSpeed="0.00" from="-140483224#0" to="-140483224#0"/>
    <trip id="blGMAtoOlib5:1" type="bus" depart="2400.00" departPos="0.00" arrivalPos="0.00" arrivalSpeed="0.00" from="140483224#0" to="140483224#0"/>
    <trip id="blGMAtoOlib6:13" type="bus" depart="2400.00" departPos="0.00" arrivalPos="0.00" arrivalSpeed="0.00" from="1119486610#0" to="1119486610#0"/>
    <trip id="blOlitoGMAb5:1" type="bus" depart="2400.00" departPos="0.00" arrivalPos="0.00" arrivalSpeed="0.00" from="894583375" to="894583375"/>
    <trip id="blOlitoGMAb6:13" type="bus" depart="2400.00" departPos="1075.80" arrivalPos="1075.80" arrivalSpeed="0.00" from="-140483224#0" to="-140483224#0"/>
    <trip id="blCarmonatoOlib5:1" type="bus" depart="2400.00" departPos="0.00" arrivalPos="0.00" arrivalSpeed="0.00" from="140483224#0" to="140483224#0"/>
    <trip id="blCarmonatoOlib6:13" type="bus" depart="2400.00" departPos="0.00" arrivalPos="0.00" arrivalSpeed="0.00" from="1119486607" to="1119486607"/>
    <trip id="blOlitoCarmonab5:1" type="bus" depart="2400.00" departPos="0.00" arrivalPos="0.00" arrivalSpeed="0.00" from="1119486607" to="1119486607"/>
    <trip id="blOlitoCarmonab6:13" type="bus" depart="2400.00" departPos="1075.80" arrivalPos="1075.80" arrivalSpeed="0.00" from="-140483224#0" to="-140483224#0"/>
    <trip id="blStaRosaToPacitab19:1" type="bus" depart="2700.00" departPos="0.00" arrivalPos="0.00" arrivalSpeed="0.00" from="-793339796#3" to="-793339796#3"/>
    <trip id="blStaRosaToPacitab20:15" type="bus" depart="2700.00" departPos="0.00" arrivalPos="31.40" arrivalSpeed="0.00" from="-793339796#1" via="-361256298#0 -440471861#5" to="-440471861#0"/>
    <trip id="blPacitaToStaRosab19:1" type="bus" depart="2700.00" departPos="0.00" arrivalPos="0.00" arrivalSpeed="0.00" from="440471861#0" to="440471861#0"/>
    <trip id="blPacitaToStaRosab20:15" type="bus" depart="2700.00" departPos="40.00" arrivalPos="232.20" arrivalSpeed="0.00" from="440471861#5" via="361256298#0 793339796#1" to="793339796#3"/>
    <trip id="randUni211:1" type="random" depart="2978.00" departPos="12.92" arrivalPos="20.66" arrivalSpeed="0.00" from="-93590615#0" to="93590610#3"/>
    <trip id="blStaRosaToPacitab21:1" type="bus" depart="3000.00" departPos="0.00" arrivalPos="0.00" arrivalSpeed="0.00" from="-793339796#3" to="-793339796#3"/>
    <trip id="blStaRosaToPacitab22:15" type="bus" depart="3000.00" departPos="0.00" arrivalPos="31.40" arrivalSpeed="0.00" from="-793339796#1" via="-361256298#0 -440471861#5" to="-440471861#0"/>
    <trip id="blPacitaToStaRosab21:1" type="bus" depart="3000.00" departPos="0.00" arrivalPos="0.00" arrivalSpeed="0.00" from="440471861#0" to="440471861#0"/>
    <trip id="blPacitaToStaRosab22:15" type="bus" depart="3000.00" departPos="40.00" arrivalPos="232.20" arrivalSpeed="0.00" from="440471861#5" via="361256298#0 793339796#1" to="793339796#3"/>
    <trip id="blGMACARtoBinanb11:1" type="bus" depart="3000.00" departPos="0.00" arrivalPos="0.00" arrivalSpeed="0.00" from="140483224#0" to="140483224#0"/>
    <trip id="blGMACARtoBinanb12:13" type="bus" depart="3000.00" departPos="260.90" arrivalPos="260.90" arrivalSpeed="0.00" from="-145894807#0" to="-145894807#0"/>
    <trip id="blBinantoGMACARb11:1" type="bus" depart="3000.00" departPos="0.00" arrivalPos="0.00" arrivalSpeed="0.00" from="361257727#0" to="361257727#0"/>
    <trip id="blBinantoGMACARb12:13" type="bus" depart="3000.00" departPos="1075.80" arrivalPos="1075.80" arrivalSpeed="0.00" from="-140483224#0" to="-140483224#0"/>
    <trip id="blStaRosaToPacitab23:1" type="bus" depart="3300.00" departPos="0.00" arrivalPos="0.00" arrivalSpeed="0.00" from="-793339796#3" to="-793339796#3"/>
    <trip id="blStaRosaToPacitab24:15" type="bus" depart="3300.00" departPos="0.00" arrivalPos="31.40" arrivalSpeed="0.00" from="-793339796#1" via="-361256298#0 -440471861#5" to="-440471861#0"/>
    <trip id="blPacitaToStaRosab23:1" type="bus" depart="3300.00" departPos="0.00" arrivalPos="0.00" arrivalSpeed="0.00" from="440471861#0" to="440471861#0"/>
    <trip id="blPacitaToStaRosab24:15" type="bus" depart="3300.00" departPos="40.00" arrivalPos="232.20" arrivalSpeed="0.00" from="440471861#5" via="361256298#0 793339796#1" to="793339796#3"/>
    <trip id="blStaRosaToPacitab25:1" type="bus" depart="3600.00" departPos="0.00" arrivalPos="0.00" arrivalSpeed="0.00" from="-793339796#3" to="-793339796#3"/>
    <trip id="blStaRosaToPacitab26:15" type="bus" depart="3600.00" departPos="0.00" arrivalPos="31.40" arrivalSpeed="0.00" from="-793339796#1" via="-361256298#0 -440471861#5" to="-440471861#0"/>
    <trip id="blPacitaToStaRosab25:1" type="bus" depart="3600.00" departPos="0.00" arrivalPos="0.00" arrivalSpeed="0.00" from="440471861#0" to="440471861#0"/>
    <trip id="blPacitaToStaRosab26:15" type="bus" depart="3600.00" departPos="40.00" arrivalPos="232.20" arrivalSpeed="0.00" from="440471861#5" via="361256298#0 793339796#1" to="793339796#3"/>
    <trip id="blGMACARtoBinanb13:1" type="bus" depart="3600.00" departPos="0.00" arrivalPos="0.00" arrivalSpeed="0.00" from="140483224#0" to="140483224#0"/>
    <trip id="blGMACARtoBinanb14:13" type="bus" depart="3600.00" departPos="260.90" arrivalPos="260.90" arrivalSpeed="0.00" from="-145894807#0" to="-145894807#0"/>
    <trip id="blBinantoGMACARb13:1" type="bus" depart="3600.00" departPos="0.00" arrivalPos="0.00" arrivalSpeed="0.00" from="361257727#0" to="361257727#0"/>
    <trip id="blBinantoGMACARb14:13" type="bus" depart="3600.00" departPos="1075.80" arrivalPos="1075.80" arrivalSpeed="0.00" from="-140483224#0" to="-140483224#0"/>
    <trip id="blGMAtoOlib7:1" type="bus" depart="3600.00" departPos="0.00" arrivalPos="0.00" arrivalSpeed="0.00" from="140483224#0" to="140483224#0"/>
    <trip id="blGMAtoOlib8:13" type="bus" depart="3600.00" departPos="0.00" arrivalPos="0.00" arrivalSpeed="0.00" from="1119486610#0" to="1119486610#0"/>
    <trip id="blOlitoGMAb7:1" type="bus" depart="3600.00" departPos="0.00" arrivalPos="0.00" arrivalSpeed="0.00" from="894583375" to="894583375"/>
    <trip id="blOlitoGMAb8:13" type="bus" depart="3600.00" departPos="1075.80" arrivalPos="1075.80" arrivalSpeed="0.00" from="-140483224#0" to="-140483224#0"/>
    <trip id="blCarmonatoOlib7:1" type="bus" depart="3600.00" departPos="0.00" arrivalPos="0.00" arrivalSpeed="0.00" from="140483224#0" to="140483224#0"/>
    <trip id="blCarmonatoOlib8:13" type="bus" depart="3600.00" departPos="0.00" arrivalPos="0.00" arrivalSpeed="0.00" from="1119486607" to="1119486607"/>
    <trip id="blOlitoCarmonab7:1" type="bus" depart="3600.00" departPos="0.00" arrivalPos="0.00" arrivalSpeed="0.00" from="1119486607" to="1119486607"/>
    <trip id="blOlitoCarmonab8:13" type="bus" depart="3600.00" departPos="1075.80" arrivalPos="1075.80" arrivalSpeed="0.00" from="-140483224#0" to="-140483224#0"/>
    <trip id="blStaRosaToPacitab27:1" type="bus" depart="3900.00" departPos="0.00" arrivalPos="0.00" arrivalSpeed="0.00" from="-793339796#3" to="-793339796#3"/>
    <trip id="blStaRosaToPacitab28:15" type="bus" depart="3900.00" departPos="0.00" arrivalPos="31.40" arrivalSpeed="0.00" from="-793339796#1" via="-361256298#0 -440471861#5" to="-440471861#0"/>
    <trip id="blPacitaToStaRosab27:1" type="bus" depart="3900.00" departPos="0.00" arrivalPos="0.00" arrivalSpeed="0.00" from="440471861#0" to="440471861#0"/>
    <trip id="blPacitaToStaRosab28:15" type="bus" depart="3900.00" departPos="40.00" arrivalPos="232.20" arrivalSpeed="0.00" from="440471861#5" via="361256298#0 793339796#1" to="793339796#3"/>
    <trip id="blStaRosaToPacitab29:1" type="bus" depart="4200.00" departPos="0.00" arrivalPos="0.00" arrivalSpeed="0.00" from="-793339796#3" to="-793339796#3"/>
    <trip id="blStaRosaToPacitab30:15" type="bus" depart="4200.00" departPos="0.00" arrivalPos="31.40" arrivalSpeed="0.00" from="-793339796#1" via="-361256298#0 -440471861#5" to="-440471861#0"/>
    <trip id="blPacitaToStaRosab29:1" type="bus" depart="4200.00" departPos="0.00" arrivalPos="0.00" arrivalSpeed="0.00" from="440471861#0" to="440471861#0"/>
    <trip id="blPacitaToStaRosab30:15" type="bus" depart="4200.00" departPos="40.00" arrivalPos="232.20" arrivalSpeed="0.00" from="440471861#5" via="361256298#0 793339796#1" to="793339796#3"/>
    <trip id="blGMACARtoBinanb15:1" type="bus" depart="4200.00" departPos="0.00" arrivalPos="0.00" arrivalSpeed="0.00" from="140483224#0" to="140483224#0"/>
    <trip id="blGMACARtoBinanb16:13" type="bus" depart="4200.00" departPos="260.90" arrivalPos="260.90" arrivalSpeed="0.00" from="-145894807#0" to="-145894807#0"/>
    <trip id="blBinantoGMACARb15:1" type="bus" depart="4200.00" departPos="0.00" arrivalPos="0.00" arrivalSpeed="0.00" from="361257727#0" to="361257727#0"/>
    <trip id="blBinantoGMACARb16:13" type="bus" depart="4200.00" departPos="1075.80" arrivalPos="1075.80" arrivalSpeed="0.00" from="-140483224#0" to="-140483224#0"/>
    <trip id="randUni200:1" type="random" depart="4207.00" departPos="47.72" arrivalPos="31.89" arrivalSpeed="0.00" from="93687061#1" to="361256298#2"/>
    <trip id="randUni247:1" type="random" depart="4397.00" departPos="5.87" arrivalPos="3.38" arrivalSpeed="0.00" from="-93590615#1" to="-777627656"/>
    <trip id="blStaRosaToPacitab2:1" type="bus" depart="4500.00" departPos="0.00" arrivalPos="0.00" arrivalSpeed="0.00" from="-793339796#3" to="-793339796#3"/>
    <trip id="blStaRosaToPacitab1:17" type="bus" depart="4500.00" departPos="0.00" arrivalPos="31.40" arrivalSpeed="0.00" from="-793339796#1" via="-361256298#0 -440471861#5" to="-440471861#0"/>
    <trip id="blPacitaToStaRosab2:1" type="bus" depart="4500.00" departPos="0.00" arrivalPos="0.00" arrivalSpeed="0.00" from="440471861#0" to="440471861#0"/>
    <trip id="blPacitaToStaRosab1:17" type="bus" depart="4500.00" departPos="40.00" arrivalPos="232.20" arrivalSpeed="0.00" from="440471861#5" via="361256298#0 793339796#1" to="793339796#3"/>
    <trip id="carIn72:1" type="default" depart="4505.00" departPos="0.00" arrivalPos="31.76" arrivalSpeed="0.00" from="140483224#0" to="793339796#1"/>
    <trip id="carIn40:1" type="default" depart="4544.00" departPos="0.00" arrivalPos="232.25" arrivalSpeed="0.00" from="-793339796#3" to="793339796#3"/>
    <trip id="blStaRosaToPacitab4:1" type="bus" depart="4800.00" departPos="0.00" arrivalPos="0.00" arrivalSpeed="0.00" from="-793339796#3" to="-793339796#3"/>
    <trip id="blStaRosaToPacitab3:17" type="bus" depart="4800.00" departPos="0.00" arrivalPos="31.40" arrivalSpeed="0.00" from="-793339796#1" via="-361256298#0 -440471861#5" to="-440471861#0"/>
    <trip id="blPacitaToStaRosab4:1" type="bus" depart="4800.00" departPos="0.00" arrivalPos="0.00" arrivalSpeed="0.00" from="440471861#0" to="440471861#0"/>
    <trip id="blPacitaToStaRosab3:17" type="bus" depart="4800.00" departPos="40.00" arrivalPos="232.20" arrivalSpeed="0.00" from="440471861#5" via="361256298#0 793339796#1" to="793339796#3"/>
    <trip id="blGMACARtoBinanb2:1" type="bus" depart="4800.00" departPos="0.00" arrivalPos="0.00" arrivalSpeed="0.00" from="140483224#0" to="140483224#0"/>
    <trip id="blGMACARtoBinanb1:15" type="bus" depart="4800.00" departPos="260.90" arrivalPos="260.90" arrivalSpeed="0.00" from="-145894807#0" to="-145894807#0"/>
    <trip id="blBinantoGMACARb2:1" type="bus" depart="4800.00" departPos="0.00" arrivalPos="0.00" arrivalSpeed="0.00" from="361257727#0" to="361257727#0"/>
    <trip id="blBinantoGMACARb1:15" type="bus" depart="4800.00" departPos="1075.80" arrivalPos="1075.80" arrivalSpeed="0.00" from="-140483224#0" to="-140483224#0"/>
    <trip id="blGMAtoOlib2:1" type="bus" depart="4800.00" departPos="0.00" arrivalPos="0.00" arrivalSpeed="0.00" from="140483224#0" to="140483224#0"/>
    <trip id="blGMAtoOlib1:15" type="bus" depart="4800.00" departPos="0.00" arrivalPos="0.00" arrivalSpeed="0.00" from="1119486610#0" to="1119486610#0"/>
    <trip id="blOlitoGMAb2:1" type="bus" depart="4800.00" departPos="0.00" arrivalPos="0.00" arrivalSpeed="0.00" from="894583375" to="894583375"/>
    <trip id="blOlitoGMAb1:15" type="bus" depart="4800.00" departPos="1075.80" arrivalPos="1075.80" arrivalSpeed="0.00" from="-140483224#0" to="-140483224#0"/>
    <trip id="blCarmonatoOlib2:1" type="bus" depart="4800.00" departPos="0.00" arrivalPos="0.00" arrivalSpeed="0.00" from="140483224#0" to="140483224#0"/>
    <trip id="blCarmonatoOlib1:15" type="bus" depart="4800.00" departPos="0.00" arrivalPos="0.00" arrivalSpeed="0.00" from="1119486607" to="1119486607"/>
    <trip id="blOlitoCarmonab2:1" type="bus" depart="4800.00" departPos="0.00" arrivalPos="0.00" arrivalSpeed="0.00" from="1119486607" to="1119486607"/>
    <trip id="blOlitoCarmonab1:15" type="bus" depart="4800.00" departPos="1075.80" arrivalPos="1075.80" arrivalSpeed="0.00" from="-140483224#0" to="-140483224#0"/>
    <trip id="carIn41:1" type="default" depart="4800.00" departPos="30.00" arrivalPos="42.11" arrivalSpeed="0.00" from="361257727#0" to="793339796#1"/>
    <trip id="carIn47:1" type="default" depart="4816.00" departPos="30.00" arrivalPos="232.25" arrivalSpeed="0.00" from="440471861#0" to="793339796#3"/>
    <trip id="carIn71:1" type="default" depart="4881.00" departPos="1075.84" arrivalPos="1075.84" arrivalSpeed="0.00" from="-140483224#0" to="-140483224#0"/>
    <trip id="randUni108:1" type="random" depart="4942.00" departPos="30.85" arrivalPos="205.39" arrivalSpeed="0.00" from="-145894807#1" to="123172358"/>
    <trip id="carIn5:1" type="default" depart="4961.00" departPos="0.00" arrivalPos="232.25" arrivalSpeed="0.00" from="-793339796#3" to="793339796#3"/>
    <trip id="blStaRosaToPacitab6:1" type="bus" depart="5100.00" departPos="0.00" arrivalPos="0.00" arrivalSpeed="0.00" from="-793339796#3" to="-793339796#3"/>
    <trip id="blStaRosaToPacitab5:17" type="bus" depart="5100.00" departPos="0.00" arrivalPos="31.40" arrivalSpeed="0.00" from="-793339796#1" via="-361256298#0 -440471861#5" to="-440471861#0"/>
    <trip id="blPacitaToStaRosab6:1" type="bus" depart="5100.00" departPos="0.00" arrivalPos="0.00" arrivalSpeed="0.00" from="440471861#0" to="440471861#0"/>
    <trip id="blPacitaToStaRosab5:17" type="bus" depart="5100.00" departPos="40.00" arrivalPos="232.20" arrivalSpeed="0.00" from="440471861#5" via="361256298#0 793339796#1" to="793339796#3"/>
    <trip id="randUni240:1" type="random" depart="5172.00" departPos="33.17" arrivalPos="2.09" arrivalSpeed="0.00" from="119709657" to="-1119486610#0"/>
    <trip id="carIn84:1" type="default" depart="5206.00" departPos="30.00" arrivalPos="26.30" arrivalSpeed="0.00" from="361257727#0" to="793339796#1"/>
    <trip id="carIn4:1" type="default" depart="5321.00" departPos="30.00" arrivalPos="232.25" arrivalSpeed="0.00" from="361257727#0" to="793339796#3"/>
    <trip id="carIn86:1" type="default" depart="5338.00" departPos="1075.84" arrivalPos="86.24" arrivalSpeed="0.00" from="-140483224#0" to="777627654"/>
    <trip id="carIn100:1" type="default" depart="5374.00" departPos="1075.84" arrivalPos="38.25" arrivalSpeed="0.00" from="-140483224#0" to="793339796#1"/>
    <trip id="blStaRosaToPacitab8:1" type="bus" depart="5400.00" departPos="0.00" arrivalPos="0.00" arrivalSpeed="0.00" from="-793339796#3" to="-793339796#3"/>
    <trip id="blStaRosaToPacitab7:17" type="bus" depart="5400.00" departPos="0.00" arrivalPos="31.40" arrivalSpeed="0.00" from="-793339796#1" via="-361256298#0 -440471861#5" to="-440471861#0"/>
    <trip id="blPacitaToStaRosab8:1" type="bus" depart="5400.00" departPos="0.00" arrivalPos="0.00" arrivalSpeed="0.00" from="440471861#0" to="440471861#0"/>
    <trip id="blPacitaToStaRosab7:17" type="bus" depart="5400.00" departPos="40.00" arrivalPos="232.20" arrivalSpeed="0.00" from="440471861#5" via="361256298#0 793339796#1" to="793339796#3"/>
    <trip id="blGMACARtoBinanb4:1" type="bus" depart="5400.00" departPos="0.00" arrivalPos="0.00" arrivalSpeed="0.00" from="140483224#0" to="140483224#0"/>
    <trip id="blGMACARtoBinanb3:15" type="bus" depart="5400.00" departPos="260.90" arrivalPos="260.90" arrivalSpeed="0.00" from="-145894807#0" to="-145894807#0"/>
    <trip id="blBinantoGMACARb4:1" type="bus" depart="5400.00" departPos="0.00" arrivalPos="0.00" arrivalSpeed="0.00" from="361257727#0" to="361257727#0"/>