<?xml version="1.0" encoding="UTF-8"?>

<!-- generated on 2025-11-16 22:04:49 by Eclipse SUMO activitygen Version 1.24.0
<activitygenConfiguration xmlns:xsi="http://www.w3.org/2001/XMLSchema-instance" xsi:noNamespaceSchemaLocation="http://sumo.dlr.de/xsd/activitygenConfiguration.xsd">

    <input>
        <net-file value="Olivarez_traci/network/map.net.xml"/>
        <stat-file value="Olivarez_traci/demand/my_city.stat.xml"/>
    </input>

    <output>
        <output-file value="Olivarez_traci/demand/activitygen-example.trips.rou.xml"/>
    </output>

    <random_number>
        <random value="true"/>
    </random_number>

</activitygenConfiguration>
-->

<routes xmlns:xsi="http://www.w3.org/2001/XMLSchema-instance" xsi:noNamespaceSchemaLocation="http://sumo.dlr.de/xsd/routes_file.xsd">
    <vType id="default" vClass="passenger" color="red"/>
    <vType id="random" vClass="passenger" color="blue"/>
    <vType id="bus" vClass="bus" color="green"/>

    <trip id="blStaRosaToPacitab1:1" type="bus" depart="0.00" departPos="0.00" arrivalPos="0.00" arrivalSpeed="0.00" from="-793339796#3" to="-793339796#3"/>
    <trip id="blStaRosaToPacitab2:15" type="bus" depart="0.00" departPos="0.00" arrivalPos="31.40" arrivalSpeed="0.00" from="-793339796#1" via="-361256298#0 -440471861#5" to="-440471861#0"/>
    <trip id="blPacitaToStaRosab1:1" type="bus" depart="0.00" departPos="0.00" arrivalPos="0.00" arrivalSpeed="0.00" from="440471861#0" to="440471861#0"/>
    <trip id="blPacitaToStaRosab2:15" type="bus" depart="0.00" departPos="40.00" arrivalPos="232.20" arrivalSpeed="0.00" from="440471861#5" via="361256298#0 793339796#1" to="793339796#3"/>
    <trip id="blGMACARtoBinanb1:1" type="bus" depart="0.00" departPos="0.00" arrivalPos="0.00" arrivalSpeed="0.00" from="140483224#0" to="140483224#0"/>
    <trip id="blGMACARtoBinanb2:15" type="bus" depart="0.00" departPos="260.90" arrivalPos="260.90" arrivalSpeed="0.00" from="-145894807#0" to="-145894807#0"/>
    <trip id="blBinantoGMACARb1:1" type="bus" depart="0.00" departPos="0.00" arrivalPos="0.00" arrivalSpeed="0.00" from="361257727#0" to="361257727#0"/>
    <trip id="blBinantoGMACARb2:15" type="bus" depart="0.00" departPos="1075.80" arrivalPos="1075.80" arrivalSpeed="0.00" from="-140483224#0" to="-140483224#0"/>
    <trip id="blGMAtoOlib1:1" type="bus" depart="0.00" departPos="0.00" arrivalPos="0.00" arrivalSpeed="0.00" from="140483224#0" to="140483224#0"/>
    <trip id="blGMAtoOlib2:15" type="bus" depart="0.00" departPos="0.00" arrivalPos="0.00" arrivalSpeed="0.00" from="1119486610#0" to="1119486610#0"/>
    <trip id="blOlitoGMAb1:1" type="bus" depart="0.00" departPos="0.00" arrivalPos="0.00" arrivalSpeed="0.00" from="894583375" to="894583375"/>
    <trip id="blOlitoGMAb2:15" type="bus" depart="0.00" departPos="1075.80" arrivalPos="1075.80" arrivalSpeed="0.00" from="-140483224#0" to="-140483224#0"/>
    <trip id="blCarmonatoOlib1:1" type="bus" depart="0.00" departPos="0.00" arrivalPos="0.00" arrivalSpeed="0.00" from="140483224#0" to="140483224#0"/>
    <trip id="blCarmonatoOlib2:15" type="bus" depart="0.00" departPos="0.00" arrivalPos="0.00" arrivalSpeed="0.00" from="1119486607" to="1119486607"/>
    <trip id="blOlitoCarmonab1:1" type="bus" depart="0.00" departPos="0.00" arrivalPos="0.00" arrivalSpeed="0.00" from="1119486607" to="1119486607"/>
    <trip id="blOlitoCarmonab2:15" type="bus" depart="0.00" departPos="1075.80" arrivalPos="1075.80" arrivalSpeed="0.00" from="-140483224#0" to="-140483224#0"/>
    <trip id="randUni15:1" type="random" depart="288.00" departPos="28.65" arrivalPos="22.67" arrivalSpeed="0.00" from="-894523077" to="-1298056754"/>
    <trip id="blStaRosaToPacitab3:1" type="bus" depart="300.00" departPos="0.00" arrivalPos="0.00" arrivalSpeed="0.00" from="-793339796#3" to="-793339796#3"/>
    <trip id="blStaRosaToPacitab4:15" type="bus" depart="300.00" departPos="0.00" arrivalPos="31.40" arrivalSpeed="0.00" from="-793339796#1" via="-361256298#0 -440471861#5" to="-440471861#0"/>
    <trip id="blPacitaToStaRosab3:1" type="bus" depart="300.00" departPos="0.00" arrivalPos="0.00" arrivalSpeed="0.00" from="440471861#0" to="440471861#0"/>
    <trip id="blPacitaToStaRosab4:15" type="bus" depart="300.00" departPos="40.00" arrivalPos="232.20" arrivalSpeed="0.00" from="440471861#5" via="361256298#0 793339796#1" to="793339796#3"/>
    <trip id="blStaRosaToPacitab5:1" type="bus" depart="600.00" departPos="0.00" arrivalPos="0.00" arrivalSpeed="0.00" from="-793339796#3" to="-793339796#3"/>
    <trip id="blStaRosaToPacitab6:15" type="bus" depart="600.00" departPos="0.00" arrivalPos="31.40" arrivalSpeed="0.00" from="-793339796#1" via="-361256298#0 -440471861#5" to="-440471861#0"/>
    <trip id="blPacitaToStaRosab5:1" type="bus" depart="600.00" departPos="0.00" arrivalPos="0.00" arrivalSpeed="0.00" from="440471861#0" to="440471861#0"/>
    <trip id="blPacitaToStaRosab6:15" type="bus" depart="600.00" departPos="40.00" arrivalPos="232.20" arrivalSpeed="0.00" from="440471861#5" via="361256298#0 793339796#1" to="793339796#3"/>
    <trip id="blGMACARtoBinanb3:1" type="bus" depart="600.00" departPos="0.00" arrivalPos="0.00" arrivalSpeed="0.00" from="140483224#0" to="140483224#0"/>
    <trip id="blGMACARtoBinanb4:15" type="bus" depart="600.00" departPos="260.90" arrivalPos="260.90" arrivalSpeed="0.00" from="-145894807#0" to="-145894807#0"/>
    <trip id="blBinantoGMACARb3:1" type="bus" depart="600.00" departPos="0.00" arrivalPos="0.00" arrivalSpeed="0.00" from="361257727#0" to="361257727#0"/>
    <trip id="blBinantoGMACARb4:15" type="bus" depart="600.00" departPos="1075.80" arrivalPos="1075.80" arrivalSpeed="0.00" from="-140483224#0" to="-140483224#0"/>
    <trip id="blStaRosaToPacitab7:1" type="bus" depart="900.00" departPos="0.00" arrivalPos="0.00" arrivalSpeed="0.00" from="-793339796#3" to="-793339796#3"/>
    <trip id="blStaRosaToPacitab8:15" type="bus" depart="900.00" departPos="0.00" arrivalPos="31.40" arrivalSpeed="0.00" from="-793339796#1" via="-361256298#0 -440471861#5" to="-440471861#0"/>
    <trip id="blPacitaToStaRosab7:1" type="bus" depart="900.00" departPos="0.00" arrivalPos="0.00" arrivalSpeed="0.00" from="440471861#0" to="440471861#0"/>
    <trip id="blPacitaToStaRosab8:15" type="bus" depart="900.00" departPos="40.00" arrivalPos="232.20" arrivalSpeed="0.00" from="440471861#5" via="361256298#0 793339796#1" to="793339796#3"/>
    <trip id="blStaRosaToPacitab9:1" type="bus" depart="1200.00" departPos="0.00" arrivalPos="0.00" arrivalSpeed="0.00" from="-793339796#3" to="-793339796#3"/>
    <trip id="blStaRosaToPacitab10:15" type="bus" depart="1200.00" departPos="0.00" arrivalPos="31.40" arrivalSpeed="0.00" from="-793339796#1" via="-361256298#0 -440471861#5" to="-440471861#0"/>
    <trip id="blPacitaToStaRosab9:1" type="bus" depart="1200.00" departPos="0.00" arrivalPos="0.00" arrivalSpeed="0.00" from="440471861#0" to="440471861#0"/>
    <trip id="blPacitaToStaRosab10:15" type="bus" depart="1200.00" departPos="40.00" arrivalPos="232.20" arrivalSpeed="0.00" from="440471861#5" via="361256298#0 793339796#1" to="793339796#3"/>
    <trip id="blGMACARtoBinanb5:1" type="bus" depart="1200.00" departPos="0.00" arrivalPos="0.00" arrivalSpeed="0.00" from="140483224#0" to="140483224#0"/>
    <trip id="blGMACARtoBinanb6:15" type="bus" depart="1200.00" departPos="260.90" arrivalPos="260.90" arrivalSpeed="0.00" from="-145894807#0" to="-145894807#0"/>
    <trip id="blBinantoGMACARb5:1" type="bus" depart="1200.00" departPos="0.00" arrivalPos="0.00" arrivalSpeed="0.00" from="361257727#0" to="361257727#0"/>
    <trip id="blBinantoGMACARb6:15" type="bus" depart="1200.00" departPos="1075.80" arrivalPos="1075.80" arrivalSpeed="0.00" from="-140483224#0" to="-140483224#0"/>
    <trip id="blGMAtoOlib3:1" type="bus" depart="1200.00" departPos="0.00" arrivalPos="0.00" arrivalSpeed="0.00" from="140483224#0" to="140483224#0"/>
    <trip id="blGMAtoOlib4:15" type="bus" depart="1200.00" departPos="0.00" arrivalPos="0.00" arrivalSpeed="0.00" from="1119486610#0" to="1119486610#0"/>
    <trip id="blOlitoGMAb3:1" type="bus" depart="1200.00" departPos="0.00" arrivalPos="0.00" arrivalSpeed="0.00" from="894583375" to="894583375"/>
    <trip id="blOlitoGMAb4:15" type="bus" depart="1200.00" departPos="1075.80" arrivalPos="1075.80" arrivalSpeed="0.00" from="-140483224#0" to="-140483224#0"/>
    <trip id="blCarmonatoOlib3:1" type="bus" depart="1200.00" departPos="0.00" arrivalPos="0.00" arrivalSpeed="0.00" from="140483224#0" to="140483224#0"/>
    <trip id="blCarmonatoOlib4:15" type="bus" depart="1200.00" departPos="0.00" arrivalPos="0.00" arrivalSpeed="0.00" from="1119486607" to="1119486607"/>
    <trip id="blOlitoCarmonab3:1" type="bus" depart="1200.00" departPos="0.00" arrivalPos="0.00" arrivalSpeed="0.00" from="1119486607" to="1119486607"/>
    <trip id="blOlitoCarmonab4:15" type="bus" depart="1200.00" departPos="1075.80" arrivalPos="1075.80" arrivalSpeed="0.00" from="-140483224#0" to="-140483224#0"/>
    <trip id="randUni55:1" type="random" depart="1210.00" departPos="13.27" arrivalPos="58.55" arrivalSpeed="0.00" from="93590607#2" to="-440471861#3"/>
    <trip id="randUni120:1" type="random" depart="1374.00" departPos="20.89" arrivalPos="15.41" arrivalSpeed="0.00" from="894517879" to="-140483224#7"/>
    <trip id="blStaRosaToPacitab11:1" type="bus" depart="1500.00" departPos="0.00" arrivalPos="0.00" arrivalSpeed="0.00" from="-793339796#3" to="-793339796#3"/>
    <trip id="blStaRosaToPacitab12:15" type="bus" depart="1500.00" departPos="0.00" arrivalPos="31.40" arrivalSpeed="0.00" from="-793339796#1" via="-361256298#0 -440471861#5" to="-440471861#0"/>
    <trip id="blPacitaToStaRosab11:1" type="bus" depart="1500.00" departPos="0.00" arrivalPos="0.00" arrivalSpeed="0.00" from="440471861#0" to="440471861#0"/>
    <trip id="blPacitaToStaRosab12:15" type="bus" depart="1500.00" departPos="40.00" arrivalPos="232.20" arrivalSpeed="0.00" from="440471861#5" via="361256298#0 793339796#1" to="793339796#3"/>
    <trip id="blStaRosaToPacitab13:1" type="bus" depart="1800.00" departPos="0.00" arrivalPos="0.00" arrivalSpeed="0.00" from="-793339796#3" to="-793339796#3"/>
    <trip id="blStaRosaToPacitab14:15" type="bus" depart="1800.00" departPos="0.00" arrivalPos="31.40" arrivalSpeed="0.00" from="-793339796#1" via="-361256298#0 -440471861#5" to="-440471861#0"/>
    <trip id="blPacitaToStaRosab13:1" type="bus" depart="1800.00" departPos="0.00" arrivalPos="0.00" arrivalSpeed="0.00" from="440471861#0" to="440471861#0"/>
    <trip id="blPacitaToStaRosab14:15" type="bus" depart="1800.00" departPos="40.00" arrivalPos="232.20" arrivalSpeed="0.00" from="440471861#5" via="361256298#0 793339796#1" to="793339796#3"/>
    <trip id="blGMACARtoBinanb7:1" type="bus" depart="1800.00" departPos="0.00" arrivalPos="0.00" arrivalSpeed="0.00" from="140483224#0" to="140483224#0"/>
    <trip id="blGMACARtoBinanb8:15" type="bus" depart="1800.00" departPos="260.90" arrivalPos="260.90" arrivalSpeed="0.00" from="-145894807#0" to="-145894807#0"/>
    <trip id="blBinantoGMACARb7:1" type="bus" depart="1800.00" departPos="0.00" arrivalPos="0.00" arrivalSpeed="0.00" from="361257727#0" to="361257727#0"/>
    <trip id="blBinantoGMACARb8:15" type="bus" depart="1800.00" departPos="1075.80" arrivalPos="1075.80" arrivalSpeed="0.00" from="-140483224#0" to="-140483224#0"/>
    <trip id="randUni18:1" type="random" depart="1937.00" departPos="6.79" arrivalPos="4.75" arrivalSpeed="0.00" from="-32083693#4" to="-93590599#1"/>
    <trip id="blStaRosaToPacitab15:1" type="bus" depart="2100.00" departPos="0.00" arrivalPos="0.00" arrivalSpeed="0.00" from="-793339796#3" to="-793339796#3"/>
    <trip id="blStaRosaToPacitab16:15" type="bus" depart="2100.00" departPos="0.00" arrivalPos="31.40" arrivalSpeed="0.00" from="-793339796#1" via="-361256298#0 -440471861#5" to="-440471861#0"/>
    <trip id="blPacitaToStaRosab15:1" type="bus" depart="2100.00" departPos="0.00" arrivalPos="0.00" arrivalSpeed="0.00" from="440471861#0" to="440471861#0"/>
    <trip id="blPacitaToStaRosab16:15" type="bus" depart="2100.00" departPos="40.00" arrivalPos="232.20" arrivalSpeed="0.00" from="440471861#5" via="361256298#0 793339796#1" to="793339796#3"/>
    <trip id="blStaRosaToPacitab17:1" type="bus" depart="2400.00" departPos="0.00" arrivalPos="0.00" arrivalSpeed="0.00" from="-793339796#3" to="-793339796#3"/>
    <trip id="blStaRosaToPacitab18:15" type="bus" depart="2400.00" departPos="0.00" arrivalPos="31.40" arrivalSpeed="0.00" from="-793339796#1" via="-361256298#0 -440471861#5" to="-440471861#0"/>
    <trip id="blPacitaToStaRosab17:1" type="bus" depart="2400.00" departPos="0.00" arrivalPos="0.00" arrivalSpeed="0.00" from="440471861#0" to="440471861#0"/>
    <trip id="blPacitaToStaRosab18:15" type="bus" depart="2400.00" departPos="40.00" arrivalPos="232.20" arrivalSpeed="0.00" from="440471861#5" via="361256298#0 793339796#1" to="793339796#3"/>
    <trip id="blGMACARtoBinanb9:1" type="bus" depart="2400.00" departPos="0.00" arrivalPos="0.00" arrivalSpeed="0.00" from="140483224#0" to="140483224#0"/>
    <trip id="blGMACARtoBinanb10:13" type="bus" depart="2400.00" departPos="260.90" arrivalPos="260.90" arrivalSpeed="0.00" from="-145894807#0" to="-145894807#0"/>
    <trip id="blBinantoGMACARb9:1" type="bus" depart="2400.00" departPos="0.00" arrivalPos="0.00" arrivalSpeed="0.00" from="361257727#0" to="361257727#0"/>
    <trip id="blBinantoGMACARb10:13" type="bus" depart="2400.00" departPos="1075.80" arrivalPos="1075.80" arrivalSpeed="0.00" from="-140483224#0" to="-140483224#0"/>
    <trip id="blGMAtoOlib5:1" type="bus" depart="2400.00" departPos="0.00" arrivalPos="0.00" arrivalSpeed="0.00" from="140483224#0" to="140483224#0"/>
    <trip id="blGMAtoOlib6:13" type="bus" depart="2400.00" departPos="0.00" arrivalPos="0.00" arrivalSpeed="0.00" from="1119486610#0" to="1119486610#0"/>
    <trip id="blOlitoGMAb5:1" type="bus" depart="2400.00" departPos="0.00" arrivalPos="0.00" arrivalSpeed="0.00" from="894583375" to="894583375"/>
    <trip id="blOlitoGMAb6:13" type="bus" depart="2400.00" departPos="1075.80" arrivalPos="1075.80" arrivalSpeed="0.00" from="-140483224#0" to="-140483224#0"/>
    <trip id="blCarmonatoOlib5:1" type="bus" depart="2400.00" departPos="0.00" arrivalPos="0.00" arrivalSpeed="0.00" from="140483224#0" to="140483224#0"/>
    <trip id="blCarmonatoOlib6:13" type="bus" depart="2400.00" departPos="0.00" arrivalPos="0.00" arrivalSpeed="0.00" from="1119486607" to="1119486607"/>
    <trip id="blOlitoCarmonab5:1" type="bus" depart="2400.00" departPos="0.00" arrivalPos="0.00" arrivalSpeed="0.00" from="1119486607" to="1119486607"/>
    <trip id="blOlitoCarmonab6:13" type="bus" depart="2400.00" departPos="1075.80" arrivalPos="1075.80" arrivalSpeed="0.00" from="-140483224#0" to="-140483224#0"/>
    <trip id="blStaRosaToPacitab19:1" type="bus" depart="2700.00" departPos="0.00" arrivalPos="0.00" arrivalSpeed="0.00" from="-793339796#3" to="-793339796#3"/>
    <trip id="blStaRosaToPacitab20:15" type="bus" depart="2700.00" departPos="0.00" arrivalPos="31.40" arrivalSpeed="0.00" from="-793339796#1" via="-361256298#0 -440471861#5" to="-440471861#0"/>
    <trip id="blPacitaToStaRosab19:1" type="bus" depart="2700.00" departPos="0.00" arrivalPos="0.00" arrivalSpeed="0.00" from="440471861#0" to="440471861#0"/>
    <trip id="blPacitaToStaRosab20:15" type="bus" depart="2700.00" departPos="40.00" arrivalPos="232.20" arrivalSpeed="0.00" from="440471861#5" via="361256298#0 793339796#1" to="793339796#3"/>
    <trip id="blStaRosaToPacitab21:1" type="bus" depart="3000.00" departPos="0.00" arrivalPos="0.00" arrivalSpeed="0.00" from="-793339796#3" to="-793339796#3"/>
    <trip id="blStaRosaToPacitab22:15" type="bus" depart="3000.00" departPos="0.00" arrivalPos="31.40" arrivalSpeed="0.00" from="-793339796#1" via="-361256298#0 -440471861#5" to="-440471861#0"/>
    <trip id="blPacitaToStaRosab21:1" type="bus" depart="3000.00" departPos="0.00" arrivalPos="0.00" arrivalSpeed="0.00" from="440471861#0" to="440471861#0"/>
    <trip id="blPacitaToStaRosab22:15" type="bus" depart="3000.00" departPos="40.00" arrivalPos="232.20" arrivalSpeed="0.00" from="440471861#5" via="361256298#0 793339796#1" to="793339796#3"/>
    <trip id="blGMACARtoBinanb11:1" type="bus" depart="3000.00" departPos="0.00" arrivalPos="0.00" arrivalSpeed="0.00" from="140483224#0" to="140483224#0"/>
    <trip id="blGMACARtoBinanb12:13" type="bus" depart="3000.00" departPos="260.90" arrivalPos="260.90" arrivalSpeed="0.00" from="-145894807#0" to="-145894807#0"/>
    <trip id="blBinantoGMACARb11:1" type="bus" depart="3000.00" departPos="0.00" arrivalPos="0.00" arrivalSpeed="0.00" from="361257727#0" to="361257727#0"/>
    <trip id="blBinantoGMACARb12:13" type="bus" depart="3000.00" departPos="1075.80" arrivalPos="1075.80" arrivalSpeed="0.00" from="-140483224#0" to="-140483224#0"/>
    <trip id="randUni70:1" type="random" depart="3249.00" departPos="23.22" arrivalPos="6.44" arrivalSpeed="0.00" from="-92227622#0" to="-93590610#1"/>
    <trip id="blStaRosaToPacitab23:1" type="bus" depart="3300.00" departPos="0.00" arrivalPos="0.00" arrivalSpeed="0.00" from="-793339796#3" to="-793339796#3"/>
    <trip id="blStaRosaToPacitab24:15" type="bus" depart="3300.00" departPos="0.00" arrivalPos="31.40" arrivalSpeed="0.00" from="-793339796#1" via="-361256298#0 -440471861#5" to="-440471861#0"/>
    <trip id="blPacitaToStaRosab23:1" type="bus" depart="3300.00" departPos="0.00" arrivalPos="0.00" arrivalSpeed="0.00" from="440471861#0" to="440471861#0"/>
    <trip id="blPacitaToStaRosab24:15" type="bus" depart="3300.00" departPos="40.00" arrivalPos="232.20" arrivalSpeed="0.00" from="440471861#5" via="361256298#0 793339796#1" to="793339796#3"/>
    <trip id="blStaRosaToPacitab25:1" type="bus" depart="3600.00" departPos="0.00" arrivalPos="0.00" arrivalSpeed="0.00" from="-793339796#3" to="-793339796#3"/>
    <trip id="blStaRosaToPacitab26:15" type="bus" depart="3600.00" departPos="0.00" arrivalPos="31.40" arrivalSpeed="0.00" from="-793339796#1" via="-361256298#0 -440471861#5" to="-440471861#0"/>
    <trip id="blPacitaToStaRosab25:1" type="bus" depart="3600.00" departPos="0.00" arrivalPos="0.00" arrivalSpeed="0.00" from="440471861#0" to="440471861#0"/>
    <trip id="blPacitaToStaRosab26:15" type="bus" depart="3600.00" departPos="40.00" arrivalPos="232.20" arrivalSpeed="0.00" from="440471861#5" via="361256298#0 793339796#1" to="793339796#3"/>
    <trip id="blGMACARtoBinanb13:1" type="bus" depart="3600.00" departPos="0.00" arrivalPos="0.00" arrivalSpeed="0.00" from="140483224#0" to="140483224#0"/>
    <trip id="blGMACARtoBinanb14:13" type="bus" depart="3600.00" departPos="260.90" arrivalPos="260.90" arrivalSpeed="0.00" from="-145894807#0" to="-145894807#0"/>
    <trip id="blBinantoGMACARb13:1" type="bus" depart="3600.00" departPos="0.00" arrivalPos="0.00" arrivalSpeed="0.00" from="361257727#0" to="361257727#0"/>
    <trip id="blBinantoGMACARb14:13" type="bus" depart="3600.00" departPos="1075.80" arrivalPos="1075.80" arrivalSpeed="0.00" from="-140483224#0" to="-140483224#0"/>
    <trip id="blGMAtoOlib7:1" type="bus" depart="3600.00" departPos="0.00" arrivalPos="0.00" arrivalSpeed="0.00" from="140483224#0" to="140483224#0"/>
    <trip id="blGMAtoOlib8:13" type="bus" depart="3600.00" departPos="0.00" arrivalPos="0.00" arrivalSpeed="0.00" from="1119486610#0" to="1119486610#0"/>
    <trip id="blOlitoGMAb7:1" type="bus" depart="3600.00" departPos="0.00" arrivalPos="0.00" arrivalSpeed="0.00" from="894583375" to="894583375"/>
    <trip id="blOlitoGMAb8:13" type="bus" depart="3600.00" departPos="1075.80" arrivalPos="1075.80" arrivalSpeed="0.00" from="-140483224#0" to="-140483224#0"/>
    <trip id="blCarmonatoOlib7:1" type="bus" depart="3600.00" departPos="0.00" arrivalPos="0.00" arrivalSpeed="0.00" from="140483224#0" to="140483224#0"/>
    <trip id="blCarmonatoOlib8:13" type="bus" depart="3600.00" departPos="0.00" arrivalPos="0.00" arrivalSpeed="0.00" from="1119486607" to="1119486607"/>
    <trip id="blOlitoCarmonab7:1" type="bus" depart="3600.00" departPos="0.00" arrivalPos="0.00" arrivalSpeed="0.00" from="1119486607" to="1119486607"/>
    <trip id="blOlitoCarmonab8:13" type="bus" depart="3600.00" departPos="1075.80" arrivalPos="1075.80" arrivalSpeed="0.00" from="-140483224#0" to="-140483224#0"/>
    <trip id="carIn24:1" type="default" depart="3667.00" departPos="70.00" arrivalPos="30.00" arrivalSpeed="0.00" from="-793339796#2" to="440471861#0"/>
    <trip id="randUni140:1" type="random" depart="3812.00" departPos="605.87" arrivalPos="4.70" arrivalSpeed="0.00" from="-140483224#0" to="-140483224#3"/>
    <trip id="blStaRosaToPacitab27:1" type="bus" depart="3900.00" departPos="0.00" arrivalPos="0.00" arrivalSpeed="0.00" from="-793339796#3" to="-793339796#3"/>
    <trip id="blStaRosaToPacitab28:15" type="bus" depart="3900.00" departPos="0.00" arrivalPos="31.40" arrivalSpeed="0.00" from="-793339796#1" via="-361256298#0 -440471861#5" to="-440471861#0"/>
    <trip id="blPacitaToStaRosab27:1" type="bus" depart="3900.00" departPos="0.00" arrivalPos="0.00" arrivalSpeed="0.00" from="440471861#0" to="440471861#0"/>
    <trip id="blPacitaToStaRosab28:15" type="bus" depart="3900.00" departPos="40.00" arrivalPos="232.20" arrivalSpeed="0.00" from="440471861#5" via="361256298#0 793339796#1" to="793339796#3"/>
    <trip id="blStaRosaToPacitab29:1" type="bus" depart="4200.00" departPos="0.00" arrivalPos="0.00" arrivalSpeed="0.00" from="-793339796#3" to="-793339796#3"/>
    <trip id="blStaRosaToPacitab30:15" type="bus" depart="4200.00" departPos="0.00" arrivalPos="31.40" arrivalSpeed="0.00" from="-793339796#1" via="-361256298#0 -440471861#5" to="-440471861#0"/>
    <trip id="blPacitaToStaRosab29:1" type="bus" depart="4200.00" departPos="0.00" arrivalPos="0.00" arrivalSpeed="0.00" from="440471861#0" to="440471861#0"/>
    <trip id="blPacitaToStaRosab30:15" type="bus" depart="4200.00" departPos="40.00" arrivalPos="232.20" arrivalSpeed="0.00" from="440471861#5" via="361256298#0 793339796#1" to="793339796#3"/>
    <trip id="blGMACARtoBinanb15:1" type="bus" depart="4200.00" departPos="0.00" arrivalPos="0.00" arrivalSpeed="0.00" from="140483224#0" to="140483224#0"/>
    <trip id="blGMACARtoBinanb16:13" type="bus" depart="4200.00" departPos="260.90" arrivalPos="260.90" arrivalSpeed="0.00" from="-145894807#0" to="-145894807#0"/>
    <trip id="blBinantoGMACARb15:1" type="bus" depart="4200.00" departPos="0.00" arrivalPos="0.00" arrivalSpeed="0.00" from="361257727#0" to="361257727#0"/>
    <trip id="blBinantoGMACARb16:13" type="bus" depart="4200.00" departPos="1075.80" arrivalPos="1075.80" arrivalSpeed="0.00" from="-140483224#0" to="-140483224#0"/>
    <trip id="blStaRosaToPacitab2:1" type="bus" depart="4500.00" departPos="0.00" arrivalPos="0.00" arrivalSpeed="0.00" from="-793339796#3" to="-793339796#3"/>
    <trip id="blStaRosaToPacitab1:17" type="bus" depart="4500.00" departPos="0.00" arrivalPos="31.40" arrivalSpeed="0.00" from="-793339796#1" via="-361256298#0 -440471861#5" to="-440471861#0"/>
    <trip id="blPacitaToStaRosab2:1" type="bus" depart="4500.00" departPos="0.00" arrivalPos="0.00" arrivalSpeed="0.00" from="440471861#0" to="440471861#0"/>
    <trip id="blPacitaToStaRosab1:17" type="bus" depart="4500.00" departPos="40.00" arrivalPos="232.20" arrivalSpeed="0.00" from="440471861#5" via="361256298#0 793339796#1" to="793339796#3"/>
    <trip id="randUni128:1" type="random" depart="4545.00" departPos="3.30" arrivalPos="72.07" arrivalSpeed="0.00" from="140483224#7" to="-793339796#2"/>
    <trip id="carIn17:1" type="default" depart="4604.00" departPos="30.00" arrivalPos="30.00" arrivalSpeed="0.00" from="440471861#0" to="-361260925#2"/>
    <trip id="blStaRosaToPacitab4:1" type="bus" depart="4800.00" departPos="0.00" arrivalPos="0.00" arrivalSpeed="0.00" from="-793339796#3" to="-793339796#3"/>
    <trip id="blStaRosaToPacitab3:17" type="bus" depart="4800.00" departPos="0.00" arrivalPos="31.40" arrivalSpeed="0.00" from="-793339796#1" via="-361256298#0 -440471861#5" to="-440471861#0"/>
    <trip id="blPacitaToStaRosab4:1" type="bus" depart="4800.00" departPos="0.00" arrivalPos="0.00" arrivalSpeed="0.00" from="440471861#0" to="440471861#0"/>
    <trip id="blPacitaToStaRosab3:17" type="bus" depart="4800.00" departPos="40.00" arrivalPos="232.20" arrivalSpeed="0.00" from="440471861#5" via="361256298#0 793339796#1" to="793339796#3"/>
    <trip id="blGMACARtoBinanb2:1" type="bus" depart="4800.00" departPos="0.00" arrivalPos="0.00" arrivalSpeed="0.00" from="140483224#0" to="140483224#0"/>
    <trip id="blGMACARtoBinanb1:15" type="bus" depart="4800.00" departPos="260.90" arrivalPos="260.90" arrivalSpeed="0.00" from="-145894807#0" to="-145894807#0"/>
    <trip id="blBinantoGMACARb2:1" type="bus" depart="4800.00" departPos="0.00" arrivalPos="0.00" arrivalSpeed="0.00" from="361257727#0" to="361257727#0"/>
    <trip id="blBinantoGMACARb1:15" type="bus" depart="4800.00" departPos="1075.80" arrivalPos="1075.80" arrivalSpeed="0.00" from="-140483224#0" to="-140483224#0"/>
    <trip id="blGMAtoOlib2:1" type="bus" depart="4800.00" departPos="0.00" arrivalPos="0.00" arrivalSpeed="0.00" from="140483224#0" to="140483224#0"/>
    <trip id="blGMAtoOlib1:15" type="bus" depart="4800.00" departPos="0.00" arrivalPos="0.00" arrivalSpeed="0.00" from="1119486610#0" to="1119486610#0"/>
    <trip id="blOlitoGMAb2:1" type="bus" depart="4800.00" departPos="0.00" arrivalPos="0.00" arrivalSpeed="0.00" from="894583375" to="894583375"/>
    <trip id="blOlitoGMAb1:15" type="bus" depart="4800.00" departPos="1075.80" arrivalPos="1075.80" arrivalSpeed="0.00" from="-140483224#0" to="-140483224#0"/>
    <trip id="blCarmonatoOlib2:1" type="bus" depart="4800.00" departPos="0.00" arrivalPos="0.00" arrivalSpeed="0.00" from="140483224#0" to="140483224#0"/>
    <trip id="blCarmonatoOlib1:15" type="bus" depart="4800.00" departPos="0.00" arrivalPos="0.00" arrivalSpeed="0.00" from="1119486607" to="1119486607"/>
    <trip id="blOlitoCarmonab2:1" type="bus" depart="4800.00" departPos="0.00" arrivalPos="0.00" arrivalSpeed="0.00" from="1119486607" to="1119486607"/>
    <trip id="blOlitoCarmonab1:15" type="bus" depart="4800.00" departPos="1075.80" arrivalPos="1075.80" arrivalSpeed="0.00" from="-140483224#0" to="-140483224#0"/>
    <trip id="carIn10:1" type="default" depart="4860.00" departPos="70.00" arrivalPos="30.00" arrivalSpeed="0.00" from="-793339796#2" to="-361260925#2"/>
    <trip id="carIn45:1" type="default" depart="4900.00" departPos="70.00" arrivalPos="30.00" arrivalSpeed="0.00" from="-793339796#2" to="-361260925#2"/>
    <trip id="carIn54:1" type="default" depart="4935.00" departPos="1000.00" arrivalPos="30.00" arrivalSpeed="0.00" from="140483224#0" to="440471861#0"/>
    <trip id="blStaRosaToPacitab6:1" type="bus" depart="5100.00" departPos="0.00" arrivalPos="0.00" arrivalSpeed="0.00" from="-793339796#3" to="-793339796#3"/>
    <trip id="blStaRosaToPacitab5:17" type="bus" depart="5100.00" departPos="0.00" arrivalPos="31.40" arrivalSpeed="0.00" from="-793339796#1" via="-361256298#0 -440471861#5" to="-440471861#0"/>
    <trip id="blPacitaToStaRosab6:1" type="bus" depart="5100.00" departPos="0.00" arrivalPos="0.00" arrivalSpeed="0.00" from="440471861#0" to="440471861#0"/>
    <trip id="blPacitaToStaRosab5:17" type="bus" depart="5100.00" departPos="40.00" arrivalPos="232.20" arrivalSpeed="0.00" from="440471861#5" via="361256298#0 793339796#1" to="793339796#3"/>
    <trip id="carIn3:1" type="default" depart="5137.00" departPos="30.00" arrivalPos="30.00" arrivalSpeed="0.00" from="440471861#0" to="440471861#0"/>
    <trip id="blStaRosaToPacitab8:1" type="bus" depart="5400.00" departPos="0.00" arrivalPos="0.00" arrivalSpeed="0.00" from="-793339796#3" to="-793339796#3"/>
    <trip id="blStaRosaToPacitab7:17" type="bus" depart="5400.00" departPos="0.00" arrivalPos="31.40" arrivalSpeed="0.00" from="-793339796#1" via="-361256298#0 -440471861#5" to="-440471861#0"/>
    <trip id="blPacitaToStaRosab8:1" type="bus" depart="5400.00" departPos="0.00" arrivalPos="0.00" arrivalSpeed="0.00" from="440471861#0" to="440471861#0"/>
    <trip id="blPacitaToStaRosab7:17" type="bus" depart="5400.00" departPos="40.00" arrivalPos="232.20" arrivalSpeed="0.00" from="440471861#5" via="361256298#0 793339796#1" to="793339796#3"/>
    <trip id="blGMACARtoBinanb4:1" type="bus" depart="5400.00" departPos="0.00" arrivalPos="0.00" arrivalSpeed="0.00" from="140483224#0" to="140483224#0"/>
    <trip id="blGMACARtoBinanb3:15" type="bus" depart="5400.00" departPos="260.90" arrivalPos="260.90" arrivalSpeed="0.00" from="-145894807#0" to="-145894807#0"/>
    <trip id="blBinantoGMACARb4:1" type="bus" depart="5400.00" departPos="0.00" arrivalPos="0.00" arrivalSpeed="0.00" from="361257727#0" to="361257727#0"/>
    <trip id="blBinantoGMACARb3:15" type="bus" depart="5400.00" departPos="1075.80" arrivalPos="1075.80" arrivalSpeed="0.00" from="-140483224#0" to="-140483224#0"/>
    <trip id="carIn26:1" type="default" depart="5413.00" departPos="30.00" arrivalPos="35.51" arrivalSpeed="0.00" from="-361260925#2" to="1109747832"/>
    <trip id="carIn69:1" type="default" depart="5420.00" departPos="30.00" arrivalPos="58.39" arrivalSpeed="0.00" from="440471861#0" to="777627654"/>
    <trip id="carIn85:1" type="default" depart="5529.00" departPos="70.00" arrivalPos="1000.00" arrivalSpeed="0.00" from="-793339796#2" to="140483224#0"/>
    <trip id="carIn33:1" type="default" depart="5646.00" departPos="30.00" arrivalPos="30.00" arrivalSpeed="0.00" from="-361260925#2" to="-361260925#2"/>
    <trip id="blStaRosaToPacitab10:1" type="bus" depart="5700.00" departPos="0.00" arrivalPos="0.00" arrivalSpeed="0.00" from="-793339796#3" to="-793339796#3"/>
    <trip id="blStaRosaToPacitab9:17" type="bus" depart="5700.00" departPos="0.00" arrivalPos="31.40" arrivalSpeed="0.00" from="-793339796#1" via="-361256298#0 -440471861#5" to="-440471861#0"/>