<routes>
    <vType id="ped" vClass="pedestrian" 
        impatience="0.2" 
        mDriveAfterRedTime="-1" 
        guiShape="pedestrian"/>

    <vTypeDistribution id="AguinaldoHighway">
        <vType id="car" vClass="passenger" 
            probability="0.413"
            guiShape="passenger"/>

        <vType id="jeep" vClass="passenger" 
            probability="0.17"
            guiShape="passenger/van" 
            length="8" 
            width="2" 
            mass="500" 
            maxSpeed="100" 
            desiredMaxSpeed="60" 
            personCapacity="20"/>

        <vType id="bus" vClass="bus" 
            probability="0.06"
            guiShape="bus"/>

        <vType id="truck" vClass="truck" 
            probability="0.13"
            guiShape="truck"/>

        <vType id="motorcycle" vClass="motorcycle" 
            probability="0.1135"
            width="0.8"
            minGap="1" 
            guiShape="motorcycle"/>

        <vType id="tricycle" vClass="motorcycle" 
            probability="0.1135"
            guiShape="motorcycle" 
            width="1.5" 
            accel="2" 
            maxSpeed="50" 
            personCapacity="4"/>
    </vTypeDistribution>

    <personFlow id="pf_1" type="ped" begin="0.00" end="1800.00" personsPerHour="100" departPos="25">
        <personTrip from="-440471861#7" to="1119486610#0"/>
    </personFlow>

    <personFlow id="pf_2" type="ped" begin="0.00" end="1800.00" personsPerHour="100" departPos="25">
        <personTrip from="361257727#0" to="777627654"/>
    </personFlow>

    <flow id="A1_1" type="AguinaldoHighway" begin="0.00" end="1800.00" probability="0.02" from="-793339796#2" to="-145894807#0" departLane="best" departSpeed="max"/>
    <flow id="A2_1" type="AguinaldoHighway" begin="0.00" end="1800.00" probability="0.01" from="-793339796#2" to="-440471861#0" departLane="best" departSpeed="max"/>
    <flow id="A3_1" type="AguinaldoHighway" begin="0.00" end="1800.00" probability="0.010" from="-793339796#2" to="-140483224#1" departLane="best" departSpeed="max"/>
    
    <flow id="B1_1" type="AguinaldoHighway" begin="0.00" end="1800.00" probability="0.01" from="-361257727#0" to="-793339796#2" departLane="best" departSpeed="max"/>
    <flow id="B2_1" type="AguinaldoHighway" begin="0.00" end="1800.00" probability="0.02" from="-361257727#0" to="-440471861#0" departLane="best" departSpeed="max"/>
    <flow id="B3_1" type="AguinaldoHighway" begin="0.00" end="1800.00" probability="0.01" from="-361257727#0" to="-140483224#1" departLane="best" departSpeed="max"/>
    
    <flow id="C1_1" type="AguinaldoHighway" begin="0.00" end="1800.00" probability="0.01" from="440471861#0" to="-793339796#2" departLane="best" departSpeed="max"/>
    <flow id="C2_1" type="AguinaldoHighway" begin="0.00" end="1800.00" probability="0.008" from="440471861#0" to="-145894807#0" departLane="best" departSpeed="max"/>
    <flow id="C3_1" type="AguinaldoHighway" begin="0.00" end="1800.00" probability="0.02" from="440471861#0" to="-140483224#1" departLane="best" departSpeed="max"/>
    
    <flow id="D1_1" type="AguinaldoHighway" begin="0.00" end="1800.00" probability="0.02" from="140483224#1" to="-793339796#2" departLane="best" departSpeed="max"/>
    <flow id="D2_1" type="AguinaldoHighway" begin="0.00" end="1800.00" probability="0.01" from="140483224#1" to="-145894807#0" departLane="best" departSpeed="max"/>
    <flow id="D3_1" type="AguinaldoHighway" begin="0.00" end="1800.00" probability="0.01" from="140483224#1" to="-440471861#0" departLane="best" departSpeed="max"/>

    <personFlow id="pf_3" type="ped" begin="1800.00" end="3600.00" personsPerHour="200" departPos="25">
        <personTrip from="-440471861#7" to="1119486610#0"/>
    </personFlow>

    <personFlow id="pf_4" type="ped" begin="0.00" end="1800.00" personsPerHour="200" departPos="25">
        <personTrip from="361257727#0" to="777627654"/>
    </personFlow>

    <flow id="A1_2" type="AguinaldoHighway" begin="1800.00" end="3600.00" probability="0.035" from="-793339796#2" to="-145894807#0" departLane="best" departSpeed="max"/>
    <flow id="A2_2" type="AguinaldoHighway" begin="1800.00" end="3600.00" probability="0.022" from="-793339796#2" to="-440471861#0" departLane="best" departSpeed="max"/>
    <flow id="A3_2" type="AguinaldoHighway" begin="1800.00" end="3600.00" probability="0.015" from="-793339796#2" to="-140483224#1" departLane="best" departSpeed="max"/>
    
    <flow id="B1_2" type="AguinaldoHighway" begin="1800.00" end="3600.00" probability="0.022" from="-361257727#0" to="-793339796#2" departLane="best" departSpeed="max"/>
    <flow id="B2_2" type="AguinaldoHighway" begin="1800.00" end="3600.00" probability="0.03" from="-361257727#0" to="-440471861#0" departLane="best" departSpeed="max"/>
    <flow id="B3_2" type="AguinaldoHighway" begin="1800.00" end="3600.00" probability="0.02" from="-361257727#0" to="-140483224#1" departLane="best" departSpeed="max"/>
    
    <flow id="C1_2" type="AguinaldoHighway" begin="1800.00" end="3600.00" probability="0.023" from="440471861#0" to="-793339796#2" departLane="best" departSpeed="max"/>
    <flow id="C2_2" type="AguinaldoHighway" begin="1800.00" end="3600.00" probability="0.012" from="440471861#0" to="-145894807#0" departLane="best" departSpeed="max"/>
    <flow id="C3_2" type="AguinaldoHighway" begin="1800.00" end="3600.00" probability="0.036" from="440471861#0" to="-140483224#1" departLane="best" departSpeed="max"/>
    
    <flow id="D1_2" type="AguinaldoHighway" begin="1800.00" end="3600.00" probability="0.03" from="140483224#1" to="-793339796#2" departLane="best" departSpeed="max"/>
    <flow id="D2_2" type="AguinaldoHighway" begin="1800.00" end="3600.00" probability="0.023" from="140483224#1" to="-145894807#0" departLane="best" departSpeed="max"/>
    <flow id="D3_2" type="AguinaldoHighway" begin="1800.00" end="3600.00" probability="0.022" from="140483224#1" to="-440471861#0" departLane="best" departSpeed="max"/>

    <personFlow id="pf_5" type="ped" begin="1800.00" end="3600.00" personsPerHour="360" departPos="25">
        <personTrip from="-440471861#7" to="1119486610#0"/>
    </personFlow>

    <personFlow id="pf_6" type="ped" begin="0.00" end="1800.00" personsPerHour="360" departPos="25">
        <personTrip from="361257727#0" to="777627654"/>
    </personFlow>

    <flow id="A1_3" type="AguinaldoHighway" begin="3600.00" end="5400.00" probability="0.0486" from="-793339796#2" to="-145894807#0" departLane="best" departSpeed="max"/>
    <flow id="A2_3" type="AguinaldoHighway" begin="3600.00" end="5400.00" probability="0.0306" from="-793339796#2" to="-440471861#0" departLane="best" departSpeed="max"/>
    <flow id="A3_3" type="AguinaldoHighway" begin="3600.00" end="5400.00" probability="0.0208" from="-793339796#2" to="-140483224#1" departLane="best" departSpeed="max"/>
    
    <flow id="B1_3" type="AguinaldoHighway" begin="3600.00" end="5400.00" probability="0.0306" from="-361257727#0" to="-793339796#2" departLane="best" departSpeed="max"/>
    <flow id="B2_3" type="AguinaldoHighway" begin="3600.00" end="5400.00" probability="0.0417" from="-361257727#0" to="-440471861#0" departLane="best" departSpeed="max"/>
    <flow id="B3_3" type="AguinaldoHighway" begin="3600.00" end="5400.00" probability="0.0277" from="-361257727#0" to="-140483224#1" departLane="best" departSpeed="max"/>
    
    <flow id="C1_3" type="AguinaldoHighway" begin="3600.00" end="5400.00" probability="0.0324" from="440471861#0" to="-793339796#2" departLane="best" departSpeed="max"/>
    <flow id="C2_3" type="AguinaldoHighway" begin="3600.00" end="5400.00" probability="0.0169" from="440471861#0" to="-145894807#0" departLane="best" departSpeed="max"/>
    <flow id="C3_3" type="AguinaldoHighway" begin="3600.00" end="5400.00" probability="0.0507" from="440471861#0" to="-140483224#1" departLane="best" departSpeed="max"/>
    
    <flow id="D1_3" type="AguinaldoHighway" begin="3600.00" end="5400.00" probability="0.0400" from="140483224#1" to="-793339796#2" departLane="best" departSpeed="max"/>
    <flow id="D2_3" type="AguinaldoHighway" begin="3600.00" end="5400.00" probability="0.0307" from="140483224#1" to="-145894807#0" departLane="best" departSpeed="max"/>
    <flow id="D3_3" type="AguinaldoHighway" begin="3600.00" end="5400.00" probability="0.0293" from="140483224#1" to="-440471861#0" departLane="best" departSpeed="max"/>
</routes>
