<?xml version="1.0" encoding="UTF-8"?>

<routes>
    <vType id="ped" vClass="pedestrian" 
        impatience="0.2" 
        mDriveAfterRedTime="-1" 
        guiShape="pedestrian"/>

    <vTypeDistribution id="AguinaldoHighway">
        <vType id="car" vClass="passenger" 
            probability="0.413"
            guiShape="passenger"/>

        <vType id="jeep" vClass="bus" 
            probability="0.17"
            guiShape="passenger/van" 
            length="8" 
            width="2" 
            mass="500" 
            maxSpeed="100" 
            desiredMaxSpeed="60" 
            personCapacity="20"/>

        <vType id="bus" vClass="bus" 
            probability="0.06"
            guiShape="bus"/>

        <vType id="truck" vClass="truck" 
            probability="0.13"
            guiShape="truck"/>

        <vType id="motorcycle" vClass="motorcycle" 
            probability="0.1135"
            width="0.8"
            minGap="0.5" 
            guiShape="motorcycle"/>

        <vType id="tricycle" vClass="motorcycle" 
            probability="0.1135"
            guiShape="motorcycle" 
            width="1.5" 
            accel="2" 
            maxSpeed="50" 
            personCapacity="4"/>
    </vTypeDistribution>

    <!-- ============================================ -->
    <!-- HOUR 1-4: NORMAL TRAFFIC (0-14400 seconds)  -->
    <!-- ============================================ -->
    
    <!-- Pedestrians - Normal Traffic -->
    <personFlow id="pf_1_normal" type="ped" begin="0.00" end="14400.00" personsPerHour="80" departPos="25">
        <personTrip from="145894807#1" to="-777627655"/>
    </personFlow>

    <personFlow id="pf_2_normal" type="ped" begin="0.00" end="14400.00" personsPerHour="80" departPos="25">
        <personTrip from="-1119486605" to="-777627655"/>
    </personFlow>

    <personFlow id="pf_3_normal" type="ped" begin="0.00" end="14400.00" personsPerHour="80" departPos="25">
        <personTrip from="777627654" to="-894583375"/>
        <personTrip from="777627654" to="140483221#1"/>
    </personFlow>

    <personFlow id="pf_4_normal" type="ped" begin="0.00" end="14400.00" personsPerHour="80" departPos="25">
        <personTrip from="-793339796#1" to="793339796#1"/>
        <personTrip from="793339796#1" to="-793339796#1"/>
    </personFlow>

    <!-- Vehicle flows - Normal Traffic -->
    <flow id="A1_1_normal" type="AguinaldoHighway" begin="0.00" end="14400.00" probability="0.00875" from="-793339796#2" to="-145894807#0" departLane="best" departSpeed="max"/>
    <flow id="A2_1_normal" type="AguinaldoHighway" begin="0.00" end="14400.00" probability="0.0175"  from="-793339796#2" to="-440471861#0" departLane="best" departSpeed="max"/>
    <flow id="A3_1_normal" type="AguinaldoHighway" begin="0.00" end="14400.00" probability="0.0175"  from="-793339796#2" to="-140483224#1" departLane="best" departSpeed="max"/>
    
    <flow id="B1_1_normal" type="AguinaldoHighway" begin="0.00" end="14400.00" probability="0.00729" from="-361257727#0" to="-793339796#2" departLane="best" departSpeed="max"/>
    <flow id="B2_1_normal" type="AguinaldoHighway" begin="0.00" end="14400.00" probability="0.00729" from="-361257727#0" to="-440471861#0" departLane="best" departSpeed="max"/>
    <flow id="B3_1_normal" type="AguinaldoHighway" begin="0.00" end="14400.00" probability="0.00729" from="-361257727#0" to="-140483224#1" departLane="best" departSpeed="max"/>
    
    <flow id="C1_1_normal" type="AguinaldoHighway" begin="0.00" end="14400.00" probability="0.0175"  from="440471861#0" to="-793339796#2" departLane="best" departSpeed="max"/>
    <flow id="C2_1_normal" type="AguinaldoHighway" begin="0.00" end="14400.00" probability="0.00875" from="440471861#0" to="-145894807#0" departLane="best" departSpeed="max"/>
    <flow id="C3_1_normal" type="AguinaldoHighway" begin="0.00" end="14400.00" probability="0.0175"  from="440471861#0" to="-140483224#1" departLane="best" departSpeed="max"/>
    
    <flow id="D1_1_normal" type="AguinaldoHighway" begin="0.00" end="14400.00" probability="0.0175"  from="140483224#1" to="-793339796#2" departLane="best" departSpeed="max"/>
    <flow id="D2_1_normal" type="AguinaldoHighway" begin="0.00" end="14400.00" probability="0.00875" from="140483224#1" to="-145894807#0" departLane="best" departSpeed="max"/>
    <flow id="D3_1_normal" type="AguinaldoHighway" begin="0.00" end="14400.00" probability="0.0175"  from="140483224#1" to="-440471861#0" departLane="best" departSpeed="max"/>

    <!-- ============================================ -->
    <!-- HOUR 5-8: SLOW TRAFFIC (14400-28800 seconds) -->
    <!-- ============================================ -->
    
    <!-- Pedestrians - Slow Traffic (doubled) -->
    <personFlow id="pf_1_slow" type="ped" begin="14400.00" end="28800.00" personsPerHour="160" departPos="25">
        <personTrip from="145894807#1" to="-777627655"/>
    </personFlow>

    <personFlow id="pf_2_slow" type="ped" begin="14400.00" end="28800.00" personsPerHour="160" departPos="25">
        <personTrip from="-1119486605" to="-777627655"/>
    </personFlow>

    <personFlow id="pf_3_slow" type="ped" begin="14400.00" end="28800.00" personsPerHour="160" departPos="25">
        <personTrip from="777627654" to="-894583375"/>
        <personTrip from="777627654" to="140483221#1"/>
    </personFlow>

    <personFlow id="pf_4_slow" type="ped" begin="14400.00" end="28800.00" personsPerHour="160" departPos="25">
        <personTrip from="-793339796#1" to="793339796#1"/>
        <personTrip from="793339796#1" to="-793339796#1"/>
    </personFlow>

    <!-- Vehicle flows - Slow Traffic (increased by ~80%) -->
    <flow id="A1_1_slow" type="AguinaldoHighway" begin="14400.00" end="28800.00" probability="0.01583" from="-793339796#2" to="-145894807#0" departLane="best" departSpeed="max"/>
    <flow id="A2_1_slow" type="AguinaldoHighway" begin="14400.00" end="28800.00" probability="0.03167"  from="-793339796#2" to="-440471861#0" departLane="best" departSpeed="max"/>
    <flow id="A3_1_slow" type="AguinaldoHighway" begin="14400.00" end="28800.00" probability="0.03167"  from="-793339796#2" to="-140483224#1" departLane="best" departSpeed="max"/>
    
    <flow id="B1_1_slow" type="AguinaldoHighway" begin="14400.00" end="28800.00" probability="0.01319" from="-361257727#0" to="-793339796#2" departLane="best" departSpeed="max"/>
    <flow id="B2_1_slow" type="AguinaldoHighway" begin="14400.00" end="28800.00" probability="0.01319" from="-361257727#0" to="-440471861#0" departLane="best" departSpeed="max"/>
    <flow id="B3_1_slow" type="AguinaldoHighway" begin="14400.00" end="28800.00" probability="0.01319" from="-361257727#0" to="-140483224#1" departLane="best" departSpeed="max"/>
    
    <flow id="C1_1_slow" type="AguinaldoHighway" begin="14400.00" end="28800.00" probability="0.03167"  from="440471861#0" to="-793339796#2" departLane="best" departSpeed="max"/>
    <flow id="C2_1_slow" type="AguinaldoHighway" begin="14400.00" end="28800.00" probability="0.01583" from="440471861#0" to="-145894807#0" departLane="best" departSpeed="max"/>
    <flow id="C3_1_slow" type="AguinaldoHighway" begin="14400.00" end="28800.00" probability="0.03167"  from="440471861#0" to="-140483224#1" departLane="best" departSpeed="max"/>
    
    <flow id="D1_1_slow" type="AguinaldoHighway" begin="14400.00" end="28800.00" probability="0.03167"  from="140483224#1" to="-793339796#2" departLane="best" departSpeed="max"/>
    <flow id="D2_1_slow" type="AguinaldoHighway" begin="14400.00" end="28800.00" probability="0.01583" from="140483224#1" to="-145894807#0" departLane="best" departSpeed="max"/>
    <flow id="D3_1_slow" type="AguinaldoHighway" begin="14400.00" end="28800.00" probability="0.03167"  from="140483224#1" to="-440471861#0" departLane="best" departSpeed="max"/>

    <!-- ============================================ -->
    <!-- HOUR 9-12: HEAVY TRAFFIC JAM (28800-43200 seconds) -->
    <!-- ============================================ -->
    
    <!-- Pedestrians - Traffic Jam (tripled) -->
    <personFlow id="pf_1_jam" type="ped" begin="28800.00" end="43200.00" personsPerHour="240" departPos="25">
        <personTrip from="145894807#1" to="-777627655"/>
    </personFlow>

    <personFlow id="pf_2_jam" type="ped" begin="28800.00" end="43200.00" personsPerHour="240" departPos="25">
        <personTrip from="-1119486605" to="-777627655"/>
    </personFlow>

    <personFlow id="pf_3_jam" type="ped" begin="28800.00" end="43200.00" personsPerHour="240" departPos="25">
        <personTrip from="777627654" to="-894583375"/>
        <personTrip from="777627654" to="140483221#1"/>
    </personFlow>

    <personFlow id="pf_4_jam" type="ped" begin="28800.00" end="43200.00" personsPerHour="240" departPos="25">
        <personTrip from="-793339796#1" to="793339796#1"/>
        <personTrip from="793339796#1" to="-793339796#1"/>
    </personFlow>

    <!-- Vehicle flows - Traffic Jam (tripled) -->
    <flow id="A1_1_jam" type="AguinaldoHighway" begin="28800.00" end="43200.00" probability="0.02708" from="-793339796#2" to="-145894807#0" departLane="best" departSpeed="max"/>
    <flow id="A2_1_jam" type="AguinaldoHighway" begin="28800.00" end="43200.00" probability="0.05417"  from="-793339796#2" to="-440471861#0" departLane="best" departSpeed="max"/>
    <flow id="A3_1_jam" type="AguinaldoHighway" begin="28800.00" end="43200.00" probability="0.05417"  from="-793339796#2" to="-140483224#1" departLane="best" departSpeed="max"/>
    
    <flow id="B1_1_jam" type="AguinaldoHighway" begin="28800.00" end="43200.00" probability="0.02257" from="-361257727#0" to="-793339796#2" departLane="best" departSpeed="max"/>
    <flow id="B2_1_jam" type="AguinaldoHighway" begin="28800.00" end="43200.00" probability="0.02257" from="-361257727#0" to="-440471861#0" departLane="best" departSpeed="max"/>
    <flow id="B3_1_jam" type="AguinaldoHighway" begin="28800.00" end="43200.00" probability="0.02257" from="-361257727#0" to="-140483224#1" departLane="best" departSpeed="max"/>
    
    <flow id="C1_1_jam" type="AguinaldoHighway" begin="28800.00" end="43200.00" probability="0.05417"  from="440471861#0" to="-793339796#2" departLane="best" departSpeed="max"/>
    <flow id="C2_1_jam" type="AguinaldoHighway" begin="28800.00" end="43200.00" probability="0.02708" from="440471861#0" to="-145894807#0" departLane="best" departSpeed="max"/>
    <flow id="C3_1_jam" type="AguinaldoHighway" begin="28800.00" end="43200.00" probability="0.05417"  from="440471861#0" to="-140483224#1" departLane="best" departSpeed="max"/>
    
    <flow id="D1_1_jam" type="AguinaldoHighway" begin="28800.00" end="43200.00" probability="0.05417"  from="140483224#1" to="-793339796#2" departLane="best" departSpeed="max"/>
    <flow id="D2_1_jam" type="AguinaldoHighway" begin="28800.00" end="43200.00" probability="0.02708" from="140483224#1" to="-145894807#0" departLane="best" departSpeed="max"/>
    <flow id="D3_1_jam" type="AguinaldoHighway" begin="28800.00" end="43200.00" probability="0.05417"  from="140483224#1" to="-440471861#0" departLane="best" departSpeed="max"/>
    
</routes>