<?xml version="1.0" encoding="UTF-8"?>

<!-- generated on 2025-09-30 16:46:43 by Eclipse SUMO netedit Version 1.24.0
<neteditConfiguration xmlns:xsi="http://www.w3.org/2001/XMLSchema-instance" xsi:noNamespaceSchemaLocation="http://sumo.dlr.de/xsd/neteditConfiguration.xsd">

    <input>
        <sumocfg-file value="K:\Users\K\Documents\Kurt\THESIS\TRACI\run_simulation.sumocfg"/>
        <sumo-net-file value="K:\Users\K\Documents\Kurt\THESIS\TRACI\network\network.net.xml"/>
    </input>

    <output>
        <output-file value="K:\Users\K\Documents\Kurt\THESIS\TRACI\network\network.net.xml"/>
    </output>

    <processing>
        <offset.disable-normalization value="true"/>
    </processing>

    <junctions>
        <no-turnarounds value="true"/>
    </junctions>

    <netedit>
        <new-network value="false"/>
    </netedit>

</neteditConfiguration>
-->

<net version="1.20" junctionCornerDetail="5" limitTurnSpeed="5.50" xmlns:xsi="http://www.w3.org/2001/XMLSchema-instance" xsi:noNamespaceSchemaLocation="http://sumo.dlr.de/xsd/net_file.xsd">

    <location netOffset="0.00,0.00" convBoundary="-133.01,-145.73,50.02,-34.04" origBoundary="10000000000.00,10000000000.00,-10000000000.00,-10000000000.00" projParameter="!"/>

    <edge id=":J1_0" function="internal">
        <lane id=":J1_0_0" index="0" speed="9.98" length="16.71" shape="-65.30,-64.66 -69.14,-67.14 -73.00,-68.25 -76.88,-67.98 -80.79,-66.34"/>
    </edge>
    <edge id=":J1_1" function="internal">
        <lane id=":J1_1_0" index="0" speed="13.89" length="26.00" shape="-65.30,-64.66 -84.88,-81.92"/>
        <lane id=":J1_1_1" index="1" speed="13.89" length="26.00" shape="-63.26,-67.12 -82.69,-84.25"/>
    </edge>
    <edge id=":J1_3" function="internal">
        <lane id=":J1_3_0" index="0" speed="8.85" length="22.54" shape="-63.26,-67.12 -67.68,-71.97 -68.89,-76.52 -66.88,-80.79 -61.67,-84.77"/>
    </edge>
    <edge id=":J1_4" function="internal">
        <lane id=":J1_4_0" index="0" speed="5.86" length="9.12" shape="-58.53,-79.19 -60.64,-77.58 -61.45,-75.85 -60.96,-74.01 -59.18,-72.05"/>
    </edge>
    <edge id=":J1_5" function="internal">
        <lane id=":J1_5_0" index="0" speed="13.89" length="25.73" shape="-58.53,-79.19 -80.79,-66.34"/>
        <lane id=":J1_5_1" index="1" speed="13.89" length="25.73" shape="-60.10,-81.98 -82.42,-69.09"/>
    </edge>
    <edge id=":J1_7" function="internal">
        <lane id=":J1_7_0" index="0" speed="11.76" length="24.50" shape="-60.10,-81.98 -66.25,-79.46 -72.06,-78.99 -77.54,-80.59 -82.69,-84.25"/>
    </edge>
    <edge id=":J1_8" function="internal">
        <lane id=":J1_8_0" index="0" speed="9.68" length="16.32" shape="-78.30,-88.91 -74.91,-86.52 -71.27,-85.50 -67.38,-85.84 -63.24,-87.56"/>
    </edge>
    <edge id=":J1_9" function="internal">
        <lane id=":J1_9_0" index="0" speed="13.89" length="25.60" shape="-78.30,-88.91 -59.18,-72.05"/>
        <lane id=":J1_9_1" index="1" speed="13.89" length="25.60" shape="-80.49,-86.58 -61.22,-69.58"/>
    </edge>
    <edge id=":J1_11" function="internal">
        <lane id=":J1_11_0" index="0" speed="8.91" length="21.68" shape="-80.49,-86.58 -76.62,-81.73 -75.65,-77.20 -77.59,-72.98 -82.42,-69.09"/>
    </edge>
    <edge id=":J1_12" function="internal">
        <lane id=":J1_12_0" index="0" speed="5.99" length="9.08" shape="-85.69,-74.60 -83.66,-76.23 -82.85,-77.99 -83.26,-79.89 -84.88,-81.92"/>
    </edge>
    <edge id=":J1_13" function="internal">
        <lane id=":J1_13_0" index="0" speed="13.89" length="25.88" shape="-85.69,-74.60 -63.24,-87.56"/>
        <lane id=":J1_13_1" index="1" speed="13.89" length="25.88" shape="-84.06,-71.84 -61.67,-84.77"/>
    </edge>
    <edge id=":J1_15" function="internal">
        <lane id=":J1_15_0" index="0" speed="12.03" length="24.63" shape="-84.06,-71.84 -78.23,-74.31 -72.49,-74.76 -66.82,-73.18 -61.22,-69.58"/>
    </edge>

    <edge id="-E0" from="J1" to="J0" priority="-1">
        <lane id="-E0_0" index="0" speed="13.89" length="57.88" shape="-80.79,-66.34 -130.56,-36.80"/>
        <lane id="-E0_1" index="1" speed="13.89" length="57.88" shape="-82.42,-69.09 -132.19,-39.55"/>
    </edge>
    <edge id="-E1" from="J1" to="J2" priority="-1">
        <lane id="-E1_0" index="0" speed="13.89" length="53.78" shape="-59.18,-72.05 -17.77,-37.74"/>
        <lane id="-E1_1" index="1" speed="13.89" length="53.78" shape="-61.22,-69.58 -19.81,-35.27"/>
    </edge>
    <edge id="-E2" from="J1" to="J3" priority="-1">
        <lane id="-E2_0" index="0" speed="13.89" length="57.12" shape="-84.88,-81.92 -126.46,-121.08"/>
        <lane id="-E2_1" index="1" speed="13.89" length="57.12" shape="-82.69,-84.25 -124.27,-123.41"/>
    </edge>
    <edge id="-E3" from="J1" to="J4" priority="-1">
        <lane id="-E3_0" index="0" speed="13.89" length="127.24" shape="-63.24,-87.56 47.67,-149.91"/>
        <lane id="-E3_1" index="1" speed="13.89" length="127.24" shape="-61.67,-84.77 49.24,-147.12"/>
    </edge>
    <edge id="E0" from="J0" to="J1" priority="-1">
        <lane id="E0_0" index="0" speed="13.89" length="57.88" shape="-135.46,-45.06 -85.69,-74.60"/>
        <lane id="E0_1" index="1" speed="13.89" length="57.88" shape="-133.83,-42.31 -84.06,-71.84"/>
    </edge>
    <edge id="E1" from="J2" to="J1" priority="-1">
        <lane id="E1_0" index="0" speed="13.89" length="53.78" shape="-23.89,-30.34 -65.30,-64.66"/>
        <lane id="E1_1" index="1" speed="13.89" length="53.78" shape="-21.85,-32.81 -63.26,-67.12"/>
    </edge>
    <edge id="E2" from="J3" to="J1" priority="-1">
        <lane id="E2_0" index="0" speed="13.89" length="57.12" shape="-119.88,-128.07 -78.30,-88.91"/>
        <lane id="E2_1" index="1" speed="13.89" length="57.12" shape="-122.07,-125.74 -80.49,-86.58"/>
    </edge>
    <edge id="E3" from="J4" to="J1" priority="-1">
        <lane id="E3_0" index="0" speed="13.89" length="127.24" shape="52.37,-141.55 -58.53,-79.19"/>
        <lane id="E3_1" index="1" speed="13.89" length="127.24" shape="50.81,-144.33 -60.10,-81.98"/>
    </edge>

    <tlLogic id="J1" type="static" programID="0" offset="0">
        <phase duration="30" state="rrrrGGGGrrrrrrrr"/>
        <phase duration="3"  state="rrrryyyyrrrrrrrr"/>
        <phase duration="30" state="GGGGrrrrrrrrrrrr"/>
        <phase duration="3"  state="yyyyrrrrrrrrrrrr"/>
        <phase duration="30" state="rrrrrrrrrrrrGGGG"/>
        <phase duration="3"  state="rrrrrrrrrrrryyyy"/>
        <phase duration="30" state="rrrrrrrrGGGGrrrr"/>
        <phase duration="3"  state="rrrrrrrryyyyrrrr"/>
    </tlLogic>

    <junction id="J0" type="dead_end" x="-133.01" y="-40.93" incLanes="-E0_0 -E0_1" intLanes="" shape="-133.01,-40.93 -129.74,-35.43 -133.01,-40.93"/>
    <junction id="J1" type="traffic_light" x="-72.49" y="-76.85" incLanes="E1_0 E1_1 E3_0 E3_1 E2_0 E2_1 E0_0 E0_1" intLanes=":J1_0_0 :J1_1_0 :J1_1_1 :J1_3_0 :J1_4_0 :J1_5_0 :J1_5_1 :J1_7_0 :J1_8_0 :J1_9_0 :J1_9_1 :J1_11_0 :J1_12_0 :J1_13_0 :J1_13_1 :J1_15_0" shape="-66.32,-63.42 -58.16,-73.28 -59.48,-74.92 -59.59,-75.68 -59.34,-76.42 -58.73,-77.12 -57.75,-77.79 -64.02,-88.95 -66.47,-87.81 -68.82,-87.20 -71.07,-87.12 -73.22,-87.57 -75.26,-88.56 -77.20,-90.07 -85.98,-80.76 -84.74,-79.01 -84.65,-78.19 -84.92,-77.41 -85.54,-76.67 -86.51,-75.97 -79.97,-64.96 -77.69,-66.05 -75.40,-66.61 -73.13,-66.62 -70.85,-66.09 -68.59,-65.03">
        <request index="0"  response="0000000001100000" foes="0000000001100000" cont="0"/>
        <request index="1"  response="1111000011100000" foes="1111100011100000" cont="0"/>
        <request index="2"  response="1111000011100000" foes="1111100011100000" cont="0"/>
        <request index="3"  response="1110011011100000" foes="1110011011100000" cont="0"/>
        <request index="4"  response="0000000000000000" foes="0000011000000000" cont="0"/>
        <request index="5"  response="0000000000000000" foes="1000111000001111" cont="0"/>
        <request index="6"  response="0000000000000000" foes="1000111000001111" cont="0"/>
        <request index="7"  response="0110000000000000" foes="0110111000001110" cont="0"/>
        <request index="8"  response="0110000000000000" foes="0110000000000000" cont="0"/>
        <request index="9"  response="1110000011110000" foes="1110000011111000" cont="0"/>
        <request index="10" response="1110000011110000" foes="1110000011111000" cont="0"/>
        <request index="11" response="1110000011100110" foes="1110000011100110" cont="0"/>
        <request index="12" response="0000000000000000" foes="0000000000000110" cont="0"/>
        <request index="13" response="0000000000000000" foes="0000111110001110" cont="0"/>
        <request index="14" response="0000000000000000" foes="0000111110001110" cont="0"/>
        <request index="15" response="0000000001100000" foes="0000111001101110" cont="0"/>
    </junction>
    <junction id="J2" type="dead_end" x="-20.83" y="-34.04" incLanes="-E1_0 -E1_1" intLanes="" shape="-20.83,-34.04 -16.75,-38.97 -20.83,-34.04"/>
    <junction id="J3" type="dead_end" x="-123.17" y="-124.57" incLanes="-E2_0 -E2_1" intLanes="" shape="-123.17,-124.57 -127.56,-119.91 -123.17,-124.57"/>
    <junction id="J4" type="dead_end" x="50.02" y="-145.73" incLanes="-E3_0 -E3_1" intLanes="" shape="50.02,-145.73 46.88,-151.31 50.02,-145.73"/>

    <connection from="E0" to="-E2" fromLane="0" toLane="0" via=":J1_12_0" tl="J1" linkIndex="12" dir="r" state="O"/>
    <connection from="E0" to="-E3" fromLane="0" toLane="0" via=":J1_13_0" tl="J1" linkIndex="13" dir="s" state="O"/>
    <connection from="E0" to="-E3" fromLane="1" toLane="1" via=":J1_13_1" tl="J1" linkIndex="14" dir="s" state="O"/>
    <connection from="E0" to="-E1" fromLane="1" toLane="1" via=":J1_15_0" tl="J1" linkIndex="15" dir="l" state="o"/>
    <connection from="E1" to="-E0" fromLane="0" toLane="0" via=":J1_0_0" tl="J1" linkIndex="0" dir="r" state="o"/>
    <connection from="E1" to="-E2" fromLane="0" toLane="0" via=":J1_1_0" tl="J1" linkIndex="1" dir="s" state="o"/>
    <connection from="E1" to="-E2" fromLane="1" toLane="1" via=":J1_1_1" tl="J1" linkIndex="2" dir="s" state="o"/>
    <connection from="E1" to="-E3" fromLane="1" toLane="1" via=":J1_3_0" tl="J1" linkIndex="3" dir="l" state="o"/>
    <connection from="E2" to="-E3" fromLane="0" toLane="0" via=":J1_8_0" tl="J1" linkIndex="8" dir="r" state="o"/>
    <connection from="E2" to="-E1" fromLane="0" toLane="0" via=":J1_9_0" tl="J1" linkIndex="9" dir="s" state="o"/>
    <connection from="E2" to="-E1" fromLane="1" toLane="1" via=":J1_9_1" tl="J1" linkIndex="10" dir="s" state="o"/>
    <connection from="E2" to="-E0" fromLane="1" toLane="1" via=":J1_11_0" tl="J1" linkIndex="11" dir="l" state="o"/>
    <connection from="E3" to="-E1" fromLane="0" toLane="0" via=":J1_4_0" tl="J1" linkIndex="4" dir="r" state="O"/>
    <connection from="E3" to="-E0" fromLane="0" toLane="0" via=":J1_5_0" tl="J1" linkIndex="5" dir="s" state="O"/>
    <connection from="E3" to="-E0" fromLane="1" toLane="1" via=":J1_5_1" tl="J1" linkIndex="6" dir="s" state="O"/>
    <connection from="E3" to="-E2" fromLane="1" toLane="1" via=":J1_7_0" tl="J1" linkIndex="7" dir="l" state="o"/>

    <connection from=":J1_0" to="-E0" fromLane="0" toLane="0" dir="r" state="M"/>
    <connection from=":J1_1" to="-E2" fromLane="0" toLane="0" dir="s" state="M"/>
    <connection from=":J1_1" to="-E2" fromLane="1" toLane="1" dir="s" state="M"/>
    <connection from=":J1_3" to="-E3" fromLane="0" toLane="1" dir="l" state="M"/>
    <connection from=":J1_4" to="-E1" fromLane="0" toLane="0" dir="r" state="M"/>
    <connection from=":J1_5" to="-E0" fromLane="0" toLane="0" dir="s" state="M"/>
    <connection from=":J1_5" to="-E0" fromLane="1" toLane="1" dir="s" state="M"/>
    <connection from=":J1_7" to="-E2" fromLane="0" toLane="1" dir="l" state="M"/>
    <connection from=":J1_8" to="-E3" fromLane="0" toLane="0" dir="r" state="M"/>
    <connection from=":J1_9" to="-E1" fromLane="0" toLane="0" dir="s" state="M"/>
    <connection from=":J1_9" to="-E1" fromLane="1" toLane="1" dir="s" state="M"/>
    <connection from=":J1_11" to="-E0" fromLane="0" toLane="1" dir="l" state="M"/>
    <connection from=":J1_12" to="-E2" fromLane="0" toLane="0" dir="r" state="M"/>
    <connection from=":J1_13" to="-E3" fromLane="0" toLane="0" dir="s" state="M"/>
    <connection from=":J1_13" to="-E3" fromLane="1" toLane="1" dir="s" state="M"/>
    <connection from=":J1_15" to="-E1" fromLane="0" toLane="1" dir="l" state="M"/>

</net>
