<?xml version="1.0" encoding="UTF-8"?>

<!-- generated on 2025-09-30 19:01:09 by Eclipse SUMO netedit Version 1.24.0
-->

<additional xmlns:xsi="http://www.w3.org/2001/XMLSchema-instance" xsi:noNamespaceSchemaLocation="http://sumo.dlr.de/xsd/additional_file.xsd">
    <!-- StoppingPlaces -->
    <busStop id="jeepStop_0" lane="E3_1" startPos="23.27" endPos="73.27"/>
    <busStop id="jeepStop_1" lane="-E0_1" startPos="25.21" endPos="36.21"/>
</additional>
