<?xml version="1.0" encoding="UTF-8"?>

<!-- generated on 2026-02-13T11:14:03.246483+08:00 by Eclipse SUMO netedit 1.25.0
<neteditConfiguration xmlns:xsi="http://www.w3.org/2001/XMLSchema-instance" xsi:noNamespaceSchemaLocation="http://sumo.dlr.de/xsd/neteditConfiguration.xsd">

    <input>
        <sumo-net-file value="C:\Users\12207578\Documents\GitHub\DRL_TrafficLight\Olivarez_traci\network\baseline.net.xml"/>
    </input>

    <output>
        <output-file value="C:\Users\12207578\Documents\GitHub\DRL_TrafficLight\Olivarez_traci\network\baseline.net.xml"/>
    </output>

    <processing>
        <geometry.min-radius.fix.railways value="false"/>
        <geometry.avoid-overlap value="false"/>
        <geometry.max-grade.fix value="false"/>
        <offset.disable-normalization value="true"/>
        <lefthand value="0"/>
    </processing>

    <junctions>
        <no-internal-links value="false"/>
        <no-turnarounds value="true"/>
        <junctions.corner-detail value="5"/>
        <junctions.limit-turn-speed value="5.50"/>
        <rectangular-lane-cut value="0"/>
    </junctions>

    <pedestrian>
        <walkingareas value="0"/>
    </pedestrian>

</neteditConfiguration>
-->

<net version="1.20" junctionCornerDetail="5" limitTurnSpeed="5.50" avoidOverlap="0" xmlns:xsi="http://www.w3.org/2001/XMLSchema-instance" xsi:noNamespaceSchemaLocation="http://sumo.dlr.de/xsd/net_file.xsd">

    <location netOffset="-291686.36,-1584676.59" convBoundary="0.00,0.00,2485.77,1394.21" origBoundary="121.054103,14.316008,121.098550,14.363847" projParameter="+proj=utm +zone=51 +ellps=WGS84 +datum=WGS84 +units=m +no_defs"/>

    <type id="highway.footway" priority="1" numLanes="1" speed="2.78" allow="pedestrian" oneway="1" width="2.00"/>
    <type id="highway.path" priority="1" numLanes="1" speed="5.56" allow="pedestrian bicycle" oneway="0" width="2.00"/>
    <type id="highway.residential" priority="3" numLanes="1" speed="13.89" disallow="tram rail_urban rail rail_electric rail_fast ship container cable_car subway aircraft wheelchair scooter drone" oneway="0"/>
    <type id="highway.secondary" priority="11" numLanes="1" speed="27.78" disallow="tram rail_urban rail rail_electric rail_fast ship container cable_car subway aircraft wheelchair scooter drone" oneway="0"/>
    <type id="highway.secondary_link" priority="6" numLanes="1" speed="22.22" disallow="tram rail_urban rail rail_electric rail_fast ship container cable_car subway aircraft wheelchair scooter drone" oneway="0"/>
    <type id="highway.service" priority="1" numLanes="1" speed="5.56" allow="pedestrian delivery bicycle" oneway="0"/>
    <type id="highway.steps" priority="1" numLanes="1" speed="1.39" allow="pedestrian" oneway="1" width="2.00"/>
    <type id="highway.tertiary" priority="10" numLanes="1" speed="22.22" disallow="tram rail_urban rail rail_electric rail_fast ship container cable_car subway aircraft wheelchair scooter drone" oneway="0"/>
    <type id="highway.trunk" priority="13" numLanes="2" speed="27.78" disallow="pedestrian bicycle tram rail_urban rail rail_electric rail_fast ship container cable_car subway aircraft wheelchair scooter drone" oneway="0"/>
    <type id="highway.unclassified" priority="4" numLanes="1" speed="13.89" disallow="tram rail_urban rail rail_electric rail_fast ship container cable_car subway aircraft wheelchair scooter drone" oneway="0"/>

    <edge id=":10055679231_0" function="internal">
        <lane id=":10055679231_0_0" index="0" allow="pedestrian delivery bicycle" speed="3.65" length="4.67" shape="1831.50,949.88 1832.86,949.41 1833.74,949.58 1834.13,950.38 1834.04,951.82"/>
    </edge>
    <edge id=":10055679234_0" function="internal">
        <lane id=":10055679234_0_0" index="0" allow="delivery bicycle" speed="5.69" length="6.72" shape="1803.68,948.38 1801.75,947.22 1800.11,946.77 1798.77,947.01 1797.72,947.95"/>
    </edge>
    <edge id=":10055679234_1" function="internal">
        <lane id=":10055679234_1_0" index="0" allow="delivery bicycle" speed="6.95" length="11.82" shape="1803.68,948.38 1800.95,945.92 1799.51,943.44 1799.37,940.94 1800.52,938.41"/>
    </edge>
    <edge id=":10055679234_2" function="internal">
        <lane id=":10055679234_2_0" index="0" allow="pedestrian delivery bicycle" speed="3.65" length="4.67" shape="1803.68,948.38 1803.17,947.03 1803.32,946.14 1804.11,945.73 1805.55,945.79"/>
    </edge>
    <edge id=":10055679234_3" function="internal">
        <lane id=":10055679234_3_0" index="0" allow="delivery bicycle" speed="5.74" length="6.74" shape="1803.13,940.26 1802.62,941.54 1802.86,942.89 1803.83,944.30 1805.55,945.79"/>
    </edge>
    <edge id=":10055679234_4" function="internal">
        <lane id=":10055679234_4_0" index="0" disallow="pedestrian tram rail_urban rail rail_electric rail_fast ship container cable_car subway aircraft wheelchair scooter drone" speed="8.33" length="9.41" shape="1803.13,940.26 1797.72,947.95"/>
    </edge>
    <edge id=":10055679234_5" function="internal">
        <lane id=":10055679234_5_0" index="0" disallow="pedestrian tram rail_urban rail rail_electric rail_fast ship container cable_car subway aircraft wheelchair scooter drone" speed="8.33" length="9.42" shape="1795.10,946.11 1800.52,938.41"/>
    </edge>
    <edge id=":10055679234_6" function="internal">
        <lane id=":10055679234_6_0" index="0" allow="delivery bicycle" speed="6.95" length="3.00" shape="1795.10,946.11 1797.13,944.13 1797.28,944.08"/>
    </edge>
    <edge id=":10055679234_7" function="internal">
        <lane id=":10055679234_7_0" index="0" allow="delivery bicycle" speed="6.95" length="8.91" shape="1797.28,944.08 1799.55,943.41 1802.36,943.96 1805.55,945.79"/>
    </edge>
    <edge id=":10055679234_w0" function="walkingarea">
        <lane id=":10055679234_w0_0" index="0" allow="pedestrian" speed="2.78" length="5.70" width="3.20" shape="1799.03,948.87 1800.66,950.02 1802.74,949.67 1804.62,947.08 1806.49,944.49 1806.07,942.33 1804.44,941.18"/>
    </edge>
    <edge id=":10055679234_w1" function="walkingarea">
        <lane id=":10055679234_w1_0" index="0" allow="pedestrian" speed="2.78" length="9.43" width="2.00" shape="1799.21,937.49 1797.57,936.33 1792.29,943.86 1793.62,945.36"/>
    </edge>
    <edge id=":10055814157_0" function="internal">
        <lane id=":10055814157_0_0" index="0" allow="pedestrian delivery bicycle" speed="3.65" length="4.67" shape="1879.33,994.65 1880.39,993.67 1881.26,993.46 1881.95,994.04 1882.45,995.39"/>
    </edge>
    <edge id=":10239200983_0" function="internal">
        <lane id=":10239200983_0_0" index="0" disallow="pedestrian bicycle tram rail_urban rail rail_electric rail_fast ship container cable_car subway aircraft wheelchair scooter drone" speed="22.95" length="5.00" shape="1452.48,751.49 1451.78,750.35 1451.24,749.60 1450.61,748.94 1449.61,748.06"/>
        <lane id=":10239200983_0_1" index="1" disallow="pedestrian bicycle tram rail_urban rail rail_electric rail_fast ship container cable_car subway aircraft wheelchair scooter drone" speed="25.33" length="5.00" shape="1455.22,749.83 1454.37,748.45 1453.71,747.54 1452.94,746.73 1451.72,745.65"/>
    </edge>
    <edge id=":10239200983_2" function="internal">
        <lane id=":10239200983_2_0" index="0" disallow="pedestrian bicycle tram rail_urban rail rail_electric rail_fast ship container cable_car subway aircraft wheelchair scooter drone" speed="3.65" length="1.44" shape="1455.22,749.83 1455.29,748.39"/>
    </edge>
    <edge id=":10239200983_8" function="internal">
        <lane id=":10239200983_8_0" index="0" disallow="pedestrian bicycle tram rail_urban rail rail_electric rail_fast ship container cable_car subway aircraft wheelchair scooter drone" speed="3.65" length="3.23" shape="1455.29,748.39 1455.77,747.64 1456.66,747.57 1457.96,748.18"/>
    </edge>
    <edge id=":10239200983_3" function="internal">
        <lane id=":10239200983_3_0" index="0" allow="bus" speed="6.01" length="7.11" shape="1463.18,740.62 1461.44,742.12 1460.45,743.61 1460.21,745.08 1460.70,746.53"/>
    </edge>
    <edge id=":10239200983_4" function="internal">
        <lane id=":10239200983_4_0" index="0" allow="bus" speed="8.39" length="12.92" shape="1463.18,740.62 1458.91,743.47 1455.58,745.26 1453.18,745.99 1451.72,745.65"/>
    </edge>
    <edge id=":10239200983_5" function="internal">
        <lane id=":10239200983_5_0" index="0" disallow="pedestrian bicycle tram rail_urban rail rail_electric rail_fast ship container cable_car subway aircraft wheelchair scooter drone" speed="27.78" length="6.99" shape="1455.94,740.84 1457.59,742.31 1458.65,743.41 1459.54,744.64 1460.70,746.53"/>
        <lane id=":10239200983_5_1" index="1" disallow="pedestrian bicycle tram rail_urban rail rail_electric rail_fast ship container cable_car subway aircraft wheelchair scooter drone" speed="27.51" length="6.99" shape="1453.83,743.24 1455.26,744.52 1456.18,745.47 1456.96,746.55 1457.96,748.18"/>
    </edge>
    <edge id=":10239200983_7" function="internal">
        <lane id=":10239200983_7_0" index="0" disallow="pedestrian bicycle tram rail_urban rail rail_electric rail_fast ship container cable_car subway aircraft wheelchair scooter drone" speed="3.65" length="1.44" shape="1453.83,743.24 1454.21,744.64"/>
    </edge>
    <edge id=":10239200983_9" function="internal">
        <lane id=":10239200983_9_0" index="0" disallow="pedestrian bicycle tram rail_urban rail rail_electric rail_fast ship container cable_car subway aircraft wheelchair scooter drone" speed="3.65" length="3.23" shape="1454.21,744.64 1453.98,745.50 1453.15,745.84 1451.72,745.65"/>
    </edge>
    <edge id=":10239200983_w0" function="walkingarea">
        <lane id=":10239200983_w0_0" index="0" allow="pedestrian" speed="2.78" length="3.67" width="2.00" shape="1448.56,749.26 1447.24,750.76 1449.40,753.34 1451.11,752.31 1450.67,751.58 1450.32,751.05 1450.01,750.64 1449.66,750.25 1449.20,749.82"/>
    </edge>
    <edge id=":1070717397_0" function="internal">
        <lane id=":1070717397_0_0" index="0" disallow="pedestrian tram rail_urban rail rail_electric rail_fast ship container cable_car subway aircraft wheelchair scooter drone" speed="8.33" length="8.55" shape="1953.23,965.70 1951.28,964.09 1950.10,962.79 1948.88,961.54 1946.81,960.12"/>
    </edge>
    <edge id=":1070717397_1" function="internal">
        <lane id=":1070717397_1_0" index="0" disallow="pedestrian tram rail_urban rail rail_electric rail_fast ship container cable_car subway aircraft wheelchair scooter drone" speed="5.60" length="12.22" shape="1953.23,965.70 1951.56,963.15 1952.17,960.40 1954.44,958.38 1957.74,958.05"/>
    </edge>
    <edge id=":1070717397_2" function="internal">
        <lane id=":1070717397_2_0" index="0" disallow="pedestrian tram rail_urban rail rail_electric rail_fast ship container cable_car subway aircraft wheelchair scooter drone" speed="3.65" length="4.67" shape="1953.23,965.70 1952.71,964.35 1952.85,963.47 1953.63,963.05 1955.08,963.08"/>
    </edge>
    <edge id=":1070717397_3" function="internal">
        <lane id=":1070717397_3_0" index="0" disallow="pedestrian tram rail_urban rail rail_electric rail_fast ship container cable_car subway aircraft wheelchair scooter drone" speed="15.27" length="9.54" shape="1948.41,957.35 1950.94,958.30 1952.88,958.19 1954.93,957.83 1957.74,958.05"/>
    </edge>
    <edge id=":1070717397_4" function="internal">
        <lane id=":1070717397_4_0" index="0" disallow="pedestrian tram rail_urban rail rail_electric rail_fast ship container cable_car subway aircraft wheelchair scooter drone" speed="8.33" length="8.82" shape="1948.41,957.35 1950.55,958.82 1951.82,960.09 1953.05,961.43 1955.08,963.08"/>
    </edge>
    <edge id=":1070717397_5" function="internal">
        <lane id=":1070717397_5_0" index="0" disallow="pedestrian tram rail_urban rail rail_electric rail_fast ship container cable_car subway aircraft wheelchair scooter drone" speed="3.65" length="4.67" shape="1948.41,957.35 1949.05,958.64 1949.00,959.53 1948.25,960.03 1946.81,960.12"/>
    </edge>
    <edge id=":1070717397_w0" function="walkingarea">
        <lane id=":1070717397_w0_0" index="0" allow="pedestrian" speed="2.78" length="8.29" width="2.00" shape="1946.01,961.50 1945.00,963.23 1951.16,968.64 1952.31,967.01 1950.91,965.91 1949.96,964.98 1949.23,964.14 1948.49,963.33 1947.49,962.47"/>
    </edge>
    <edge id=":1070717397_w1" function="walkingarea">
        <lane id=":1070717397_w1_0" index="0" allow="pedestrian" speed="2.78" length="6.90" width="3.20" shape="1956.00,961.77 1957.15,960.14 1957.38,959.61 1958.10,956.49 1950.22,954.23 1949.22,955.96 1950.81,956.99 1951.88,957.89 1952.69,958.74 1953.47,959.62 1954.50,960.61"/>
    </edge>
    <edge id=":1070717512_0" function="internal">
        <lane id=":1070717512_0_0" index="0" disallow="pedestrian tram rail_urban rail rail_electric rail_fast ship container cable_car subway aircraft wheelchair scooter drone" speed="8.33" length="14.63" shape="2063.57,636.83 2059.96,651.01"/>
    </edge>
    <edge id=":1070717512_1" function="internal">
        <lane id=":1070717512_1_0" index="0" disallow="pedestrian tram rail_urban rail rail_electric rail_fast ship container cable_car subway aircraft wheelchair scooter drone" speed="7.86" length="4.37" shape="2063.57,636.83 2061.91,640.88"/>
    </edge>
    <edge id=":1070717512_2" function="internal">
        <lane id=":1070717512_2_0" index="0" disallow="pedestrian tram rail_urban rail rail_electric rail_fast ship container cable_car subway aircraft wheelchair scooter drone" speed="3.65" length="1.44" shape="2063.57,636.83 2062.50,637.80"/>
    </edge>
    <edge id=":1070717512_9" function="internal">
        <lane id=":1070717512_9_0" index="0" disallow="pedestrian tram rail_urban rail rail_electric rail_fast ship container cable_car subway aircraft wheelchair scooter drone" speed="7.86" length="11.16" shape="2061.91,640.88 2059.41,643.17 2056.06,643.71 2051.86,642.50"/>
    </edge>
    <edge id=":1070717512_10" function="internal">
        <lane id=":1070717512_10_0" index="0" disallow="pedestrian tram rail_urban rail rail_electric rail_fast ship container cable_car subway aircraft wheelchair scooter drone" speed="3.65" length="3.23" shape="2062.50,637.80 2061.63,638.00 2060.95,637.42 2060.46,636.06"/>
    </edge>
    <edge id=":1070717512_3" function="internal">
        <lane id=":1070717512_3_0" index="0" disallow="pedestrian tram rail_urban rail rail_electric rail_fast ship container cable_car subway aircraft wheelchair scooter drone" speed="6.33" length="9.66" shape="2053.18,639.58 2055.79,640.34 2057.88,640.00 2059.44,638.57 2060.46,636.06"/>
    </edge>
    <edge id=":1070717512_4" function="internal">
        <lane id=":1070717512_4_0" index="0" disallow="pedestrian tram rail_urban rail rail_electric rail_fast ship container cable_car subway aircraft wheelchair scooter drone" speed="8.66" length="14.62" shape="2053.18,639.58 2056.88,641.78 2059.24,644.41 2060.26,647.49 2059.96,651.01"/>
    </edge>
    <edge id=":1070717512_5" function="internal">
        <lane id=":1070717512_5_0" index="0" disallow="pedestrian tram rail_urban rail rail_electric rail_fast ship container cable_car subway aircraft wheelchair scooter drone" speed="3.65" length="4.67" shape="2053.18,639.58 2053.94,640.80 2053.98,641.70 2053.29,642.26 2051.86,642.50"/>
    </edge>
    <edge id=":1070717512_6" function="internal">
        <lane id=":1070717512_6_0" index="0" disallow="pedestrian tram rail_urban rail rail_electric rail_fast ship container cable_car subway aircraft wheelchair scooter drone" speed="7.28" length="10.08" shape="2056.86,650.20 2057.02,647.90 2056.25,645.84 2054.53,644.04 2051.86,642.50"/>
    </edge>
    <edge id=":1070717512_7" function="internal">
        <lane id=":1070717512_7_0" index="0" disallow="pedestrian tram rail_urban rail rail_electric rail_fast ship container cable_car subway aircraft wheelchair scooter drone" speed="8.33" length="14.60" shape="2056.86,650.20 2060.46,636.06"/>
    </edge>
    <edge id=":1070717512_8" function="internal">
        <lane id=":1070717512_8_0" index="0" disallow="pedestrian tram rail_urban rail rail_electric rail_fast ship container cable_car subway aircraft wheelchair scooter drone" speed="3.65" length="1.44" shape="2056.86,650.20 2057.94,649.25"/>
    </edge>
    <edge id=":1070717512_11" function="internal">
        <lane id=":1070717512_11_0" index="0" disallow="pedestrian tram rail_urban rail rail_electric rail_fast ship container cable_car subway aircraft wheelchair scooter drone" speed="3.65" length="3.23" shape="2057.94,649.25 2058.81,649.06 2059.48,649.65 2059.96,651.01"/>
    </edge>
    <edge id=":1070717512_w0" function="walkingarea">
        <lane id=":1070717512_w0_0" index="0" allow="pedestrian" speed="2.78" length="14.66" width="2.00" shape="2061.50,651.42 2063.44,651.92 2067.06,637.71 2065.12,637.22"/>
    </edge>
    <edge id=":1070717512_w1" function="walkingarea">
        <lane id=":1070717512_w1_0" index="0" allow="pedestrian" speed="2.78" length="4.10" width="2.00" shape="2058.91,635.67 2056.97,635.18 2054.66,636.30 2053.84,638.12 2055.09,638.56 2056.18,638.65 2057.11,638.41 2057.88,637.84 2058.48,636.92"/>
    </edge>
    <edge id=":1070717512_w2" function="walkingarea">
        <lane id=":1070717512_w2_0" index="0" allow="pedestrian" speed="2.78" length="5.88" width="2.00" shape="2051.20,643.95 2050.38,645.78 2053.38,649.30 2055.31,649.80 2055.46,648.65 2055.27,647.57 2054.75,646.55 2053.90,645.62 2052.72,644.75"/>
    </edge>
    <edge id=":1070717682_0" function="internal">
        <lane id=":1070717682_0_0" index="0" disallow="pedestrian bicycle tram rail_urban rail rail_electric rail_fast ship container cable_car subway aircraft wheelchair scooter drone" speed="8.52" length="9.46" shape="1602.19,689.73 1600.85,690.94 1599.89,692.76 1599.30,695.21 1599.08,698.28"/>
    </edge>
    <edge id=":1070717682_1" function="internal">
        <lane id=":1070717682_1_0" index="0" disallow="pedestrian bicycle tram rail_urban rail rail_electric rail_fast ship container cable_car subway aircraft wheelchair scooter drone" speed="27.78" length="9.17" shape="1602.19,689.73 1594.35,694.46"/>
        <lane id=":1070717682_1_1" index="1" disallow="pedestrian bicycle tram rail_urban rail rail_electric rail_fast ship container cable_car subway aircraft wheelchair scooter drone" speed="27.78" length="9.17" shape="1600.56,686.97 1592.69,691.72"/>
    </edge>
    <edge id=":1070717682_3" function="internal">
        <lane id=":1070717682_3_0" index="0" disallow="pedestrian bicycle tram rail_urban rail rail_electric rail_fast ship container cable_car subway aircraft wheelchair scooter drone" speed="3.65" length="1.44" shape="1600.56,686.97 1599.12,686.90"/>
    </edge>
    <edge id=":1070717682_8" function="internal">
        <lane id=":1070717682_8_0" index="0" disallow="pedestrian bicycle tram rail_urban rail rail_electric rail_fast ship container cable_car subway aircraft wheelchair scooter drone" speed="3.65" length="3.23" shape="1599.12,686.90 1598.36,686.41 1598.30,685.52 1598.93,684.22"/>
    </edge>
    <edge id=":1070717682_4" function="internal">
        <lane id=":1070717682_4_0" index="0" disallow="pedestrian bicycle tram rail_urban rail rail_electric rail_fast ship container cable_car subway aircraft wheelchair scooter drone" speed="27.78" length="9.23" shape="1589.38,686.24 1597.30,681.47"/>
        <lane id=":1070717682_4_1" index="1" disallow="pedestrian bicycle tram rail_urban rail rail_electric rail_fast ship container cable_car subway aircraft wheelchair scooter drone" speed="27.78" length="9.23" shape="1591.04,688.98 1598.93,684.22"/>
    </edge>
    <edge id=":1070717682_6" function="internal">
        <lane id=":1070717682_6_0" index="0" disallow="pedestrian bicycle tram rail_urban rail rail_electric rail_fast ship container cable_car subway aircraft wheelchair scooter drone" speed="7.25" length="3.48" shape="1591.04,688.98 1594.31,687.81"/>
    </edge>
    <edge id=":1070717682_7" function="internal">
        <lane id=":1070717682_7_0" index="0" disallow="pedestrian bicycle tram rail_urban rail rail_electric rail_fast ship container cable_car subway aircraft wheelchair scooter drone" speed="3.65" length="1.44" shape="1591.04,688.98 1592.48,689.05"/>
    </edge>
    <edge id=":1070717682_9" function="internal">
        <lane id=":1070717682_9_0" index="0" disallow="pedestrian bicycle tram rail_urban rail rail_electric rail_fast ship container cable_car subway aircraft wheelchair scooter drone" speed="7.25" length="12.86" shape="1594.31,687.81 1594.61,687.71 1597.14,688.83 1598.63,692.35 1599.08,698.28"/>
    </edge>
    <edge id=":1070717682_10" function="internal">
        <lane id=":1070717682_10_0" index="0" disallow="pedestrian bicycle tram rail_urban rail rail_electric rail_fast ship container cable_car subway aircraft wheelchair scooter drone" speed="3.65" length="3.23" shape="1592.48,689.05 1593.23,689.52 1593.30,690.42 1592.69,691.72"/>
    </edge>
    <edge id=":1070717682_c0" function="crossing" crossingEdges="361256298#1 -361256298#1">
        <lane id=":1070717682_c0_0" index="0" allow="pedestrian" speed="2.78" length="12.80" width="4.00" shape="1594.76,681.11 1601.28,692.12" outlineShape="1596.48,680.09 1603.00,691.10 1602.31,691.68 1601.74,692.50 1601.29,693.57 1600.96,694.90 1600.90,695.40 1593.04,682.13 1596.48,680.09 1595.46,678.37 1587.52,683.16 1588.55,684.87 1593.04,682.13"/>
    </edge>
    <edge id=":1070717682_w0" function="walkingarea">
        <lane id=":1070717682_w0_0" index="0" allow="pedestrian" speed="2.78" length="5.01" width="4.00" shape="1600.68,698.30 1602.68,698.32 1604.02,692.83 1603.00,691.10 1602.31,691.68 1601.74,692.50 1601.29,693.57 1600.96,694.90 1600.76,696.47"/>
    </edge>
    <edge id=":1070717682_w1" function="walkingarea">
        <lane id=":1070717682_w1_0" index="0" allow="pedestrian" speed="2.78" length="6.28" width="4.00" shape="1593.04,682.13 1596.48,680.09 1595.46,678.37 1587.52,683.16 1588.55,684.87"/>
    </edge>
    <edge id=":1070717719_0" function="internal">
        <lane id=":1070717719_0_0" index="0" disallow="pedestrian tram rail_urban rail rail_electric rail_fast ship container cable_car subway aircraft wheelchair scooter drone" speed="8.33" length="8.31" shape="1983.20,949.23 1980.65,957.13"/>
    </edge>
    <edge id=":1070717719_1" function="internal">
        <lane id=":1070717719_1_0" index="0" disallow="pedestrian tram rail_urban rail rail_electric rail_fast ship container cable_car subway aircraft wheelchair scooter drone" speed="3.65" length="1.44" shape="1983.20,949.23 1982.11,950.16"/>
    </edge>
    <edge id=":1070717719_6" function="internal">
        <lane id=":1070717719_6_0" index="0" disallow="pedestrian tram rail_urban rail rail_electric rail_fast ship container cable_car subway aircraft wheelchair scooter drone" speed="3.65" length="3.23" shape="1982.11,950.16 1981.23,950.33 1980.57,949.73 1980.12,948.36"/>
    </edge>
    <edge id=":1070717719_2" function="internal">
        <lane id=":1070717719_2_0" index="0" disallow="pedestrian tram rail_urban rail rail_electric rail_fast ship container cable_car subway aircraft wheelchair scooter drone" speed="10.54" length="9.50" shape="1972.48,953.09 1975.12,951.98 1977.29,951.47 1978.96,950.60 1980.12,948.36"/>
    </edge>
    <edge id=":1070717719_3" function="internal">
        <lane id=":1070717719_3_0" index="0" disallow="pedestrian tram rail_urban rail rail_electric rail_fast ship container cable_car subway aircraft wheelchair scooter drone" speed="6.60" length="15.35" shape="1972.48,953.09 1977.37,950.69 1980.36,950.56 1981.45,952.71 1980.65,957.13"/>
    </edge>
    <edge id=":1070717719_4" function="internal">
        <lane id=":1070717719_4_0" index="0" disallow="pedestrian tram rail_urban rail rail_electric rail_fast ship container cable_car subway aircraft wheelchair scooter drone" speed="8.33" length="8.21" shape="1977.60,956.17 1980.12,948.36"/>
    </edge>
    <edge id=":1070717719_5" function="internal">
        <lane id=":1070717719_5_0" index="0" disallow="pedestrian tram rail_urban rail rail_electric rail_fast ship container cable_car subway aircraft wheelchair scooter drone" speed="3.65" length="1.44" shape="1977.60,956.17 1978.72,955.27"/>
    </edge>
    <edge id=":1070717719_7" function="internal">
        <lane id=":1070717719_7_0" index="0" disallow="pedestrian tram rail_urban rail rail_electric rail_fast ship container cable_car subway aircraft wheelchair scooter drone" speed="3.65" length="3.23" shape="1978.72,955.27 1979.60,955.13 1980.25,955.75 1980.65,957.13"/>
    </edge>
    <edge id=":1070717719_w0" function="walkingarea">
        <lane id=":1070717719_w0_0" index="0" allow="pedestrian" speed="2.78" length="8.39" width="2.00" shape="1982.17,957.62 1984.08,958.22 1986.67,950.20 1984.74,949.66"/>
    </edge>
    <edge id=":1070717719_w1" function="walkingarea">
        <lane id=":1070717719_w1_0" index="0" allow="pedestrian" speed="2.78" length="6.37" width="3.20" shape="1978.58,947.93 1976.66,947.38 1971.65,951.72 1973.31,954.46 1974.16,955.09 1976.07,955.69"/>
    </edge>
    <edge id=":1070717739_0" function="internal">
        <lane id=":1070717739_0_0" index="0" disallow="pedestrian tram rail_urban rail rail_electric rail_fast ship container cable_car subway aircraft wheelchair scooter drone" speed="8.33" length="11.39" shape="1728.27,999.19 1725.77,1001.38 1724.41,1003.24 1723.48,1005.43 1722.32,1008.61"/>
    </edge>
    <edge id=":1070717739_1" function="internal">
        <lane id=":1070717739_1_0" index="0" disallow="pedestrian tram rail_urban rail rail_electric rail_fast ship container cable_car subway aircraft wheelchair scooter drone" speed="8.33" length="13.03" shape="1728.27,999.19 1725.89,1000.51 1723.00,1001.13 1719.62,1001.05 1715.73,1000.27"/>
    </edge>
    <edge id=":1070717739_2" function="internal">
        <lane id=":1070717739_2_0" index="0" disallow="pedestrian tram rail_urban rail rail_electric rail_fast ship container cable_car subway aircraft wheelchair scooter drone" speed="3.65" length="4.67" shape="1728.27,999.19 1726.83,999.30 1726.02,998.92 1725.84,998.04 1726.29,996.67"/>
    </edge>
    <edge id=":1070717739_3" function="internal">
        <lane id=":1070717739_3_0" index="0" disallow="pedestrian tram rail_urban rail rail_electric rail_fast ship container cable_car subway aircraft wheelchair scooter drone" speed="8.33" length="10.06" shape="1716.57,997.19 1719.70,997.84 1722.36,997.98 1724.56,997.59 1726.29,996.67"/>
    </edge>
    <edge id=":1070717739_4" function="internal">
        <lane id=":1070717739_4_0" index="0" disallow="pedestrian tram rail_urban rail rail_electric rail_fast ship container cable_car subway aircraft wheelchair scooter drone" speed="7.91" length="14.95" shape="1716.57,997.19 1720.39,998.84 1722.62,1001.30 1723.26,1004.55 1722.32,1008.61"/>
    </edge>
    <edge id=":1070717739_5" function="internal">
        <lane id=":1070717739_5_0" index="0" disallow="pedestrian tram rail_urban rail rail_electric rail_fast ship container cable_car subway aircraft wheelchair scooter drone" speed="3.65" length="4.67" shape="1716.57,997.19 1717.52,998.27 1717.69,999.15 1717.10,999.82 1715.73,1000.27"/>
    </edge>
    <edge id=":1070717739_6" function="internal">
        <lane id=":1070717739_6_0" index="0" disallow="pedestrian tram rail_urban rail rail_electric rail_fast ship container cable_car subway aircraft wheelchair scooter drone" speed="6.40" length="9.39" shape="1719.33,1007.44 1719.93,1004.90 1719.52,1002.86 1718.12,1001.31 1715.73,1000.27"/>
    </edge>
    <edge id=":1070717739_7" function="internal">
        <lane id=":1070717739_7_0" index="0" disallow="pedestrian tram rail_urban rail rail_electric rail_fast ship container cable_car subway aircraft wheelchair scooter drone" speed="8.33" length="13.11" shape="1719.33,1007.44 1720.70,1003.80 1721.80,1001.30 1723.41,999.19 1726.29,996.67"/>
    </edge>
    <edge id=":1070717739_8" function="internal">
        <lane id=":1070717739_8_0" index="0" disallow="pedestrian tram rail_urban rail rail_electric rail_fast ship container cable_car subway aircraft wheelchair scooter drone" speed="3.65" length="4.67" shape="1719.33,1007.44 1720.52,1006.62 1721.41,1006.53 1722.01,1007.20 1722.32,1008.61"/>
    </edge>
    <edge id=":1070717739_w0" function="walkingarea">
        <lane id=":1070717739_w0_0" index="0" allow="pedestrian" speed="2.78" length="9.77" width="2.00" shape="1723.81,1009.19 1725.67,1009.91 1730.49,1002.03 1729.26,1000.45 1727.58,1001.87 1726.46,1003.06 1725.71,1004.21 1725.15,1005.50 1724.58,1007.10"/>
    </edge>
    <edge id=":1070717739_w1" function="walkingarea">
        <lane id=":1070717739_w1_0" index="0" allow="pedestrian" speed="2.78" length="7.43" width="2.00" shape="1725.31,995.41 1724.07,993.84 1717.52,993.71 1716.99,995.64 1718.88,996.09 1720.56,996.34 1722.05,996.40 1723.33,996.26 1724.42,995.94"/>
    </edge>
    <edge id=":1070717739_w2" function="walkingarea">
        <lane id=":1070717739_w2_0" index="0" allow="pedestrian" speed="2.78" length="4.16" width="2.00" shape="1715.31,1001.82 1714.78,1003.74 1715.98,1006.14 1717.84,1006.86 1718.20,1005.63 1718.24,1004.55 1717.98,1003.63 1717.40,1002.87 1716.51,1002.27"/>
    </edge>
    <edge id=":1070717928_0" function="internal">
        <lane id=":1070717928_0_0" index="0" disallow="pedestrian tram rail_urban rail rail_electric rail_fast ship container cable_car subway aircraft wheelchair scooter drone" speed="6.60" length="9.07" shape="2031.49,791.69 2028.98,791.46 2026.99,792.05 2025.52,793.47 2024.55,795.70"/>
    </edge>
    <edge id=":1070717928_1" function="internal">