<?xml version='1.0' encoding='UTF-8'?>
<additional xmlns:xsi="http://www.w3.org/2001/XMLSchema-instance" xsi:noNamespaceSchemaLocation="http://sumo.dlr.de/xsd/additional_file.xsd">
  <taz id="zone_a_malvar_north" edges="-361256298#1">
    <tazSource id="-361256298#1" weight="1.0" />
    <tazSink id="-361256298#1" weight="1.0" />
  </taz>
  <taz id="zone_b_highway_east" edges="939610874">
    <tazSource id="939610874" weight="1.0" />
    <tazSink id="939610874" weight="1.0" />
  </taz>
  <taz id="zone_c_malvar_south" edges="440471861#6">
    <tazSource id="440471861#6" weight="1.0" />
    <tazSink id="440471861#6" weight="1.0" />
  </taz>
  <taz id="zone_d_highway_west" edges="140483224#12">
    <tazSource id="140483224#12" weight="1.0" />
    <tazSink id="140483224#12" weight="1.0" />
  </taz>
</additional>