<?xml version="1.0" encoding="UTF-8"?>

<!-- generated on 2026-02-13T13:58:34.350133+08:00 by Eclipse SUMO netedit 1.25.0
<neteditConfiguration xmlns:xsi="http://www.w3.org/2001/XMLSchema-instance" xsi:noNamespaceSchemaLocation="http://sumo.dlr.de/xsd/neteditConfiguration.xsd">

    <input>
        <sumo-net-file value="C:\Users\12207578\Documents\GitHub\DRL_TrafficLight\Banlic-Mamatid_traci\network\banlic-mamatid.net_signalized.xml.net.xml"/>
    </input>

    <output>
        <output-file value="C:\Users\12207578\Documents\GitHub\DRL_TrafficLight\Banlic-Mamatid_traci\network\banlic-mamatid.net_signalized.xml.net.xml"/>
    </output>

    <processing>
        <geometry.min-radius.fix.railways value="false"/>
        <geometry.avoid-overlap value="false"/>
        <geometry.max-grade.fix value="false"/>
        <offset.disable-normalization value="true"/>
        <lefthand value="0"/>
    </processing>

    <junctions>
        <no-internal-links value="false"/>
        <no-turnarounds value="true"/>
        <junctions.corner-detail value="5"/>
        <junctions.limit-turn-speed value="5.50"/>
        <rectangular-lane-cut value="0"/>
    </junctions>

    <pedestrian>
        <walkingareas value="0"/>
    </pedestrian>

</neteditConfiguration>
-->

<net version="1.20" junctionCornerDetail="5" limitTurnSpeed="5.50" avoidOverlap="0" xmlns:xsi="http://www.w3.org/2001/XMLSchema-instance" xsi:noNamespaceSchemaLocation="http://sumo.dlr.de/xsd/net_file.xsd">

    <location netOffset="-298242.28,-1572890.29" convBoundary="0.00,0.00,2115.15,2903.87" origBoundary="121.129997,14.220369,121.149808,14.246459" projParameter="+proj=utm +zone=51 +ellps=WGS84 +datum=WGS84 +units=m +no_defs"/>

    <type id="highway.residential" priority="3" numLanes="1" speed="13.89" disallow="tram rail_urban rail rail_electric rail_fast ship container cable_car subway aircraft wheelchair scooter drone" oneway="0"/>
    <type id="highway.secondary" priority="11" numLanes="1" speed="27.78" disallow="tram rail_urban rail rail_electric rail_fast ship container cable_car subway aircraft wheelchair scooter drone" oneway="0"/>
    <type id="highway.service" priority="1" numLanes="1" speed="5.56" allow="pedestrian delivery bicycle" oneway="0"/>
    <type id="highway.tertiary" priority="10" numLanes="1" speed="22.22" disallow="tram rail_urban rail rail_electric rail_fast ship container cable_car subway aircraft wheelchair scooter drone" oneway="0"/>
    <type id="highway.trunk" priority="13" numLanes="2" speed="27.78" disallow="pedestrian bicycle tram rail_urban rail rail_electric rail_fast ship container cable_car subway aircraft wheelchair scooter drone" oneway="0"/>
    <type id="highway.unclassified" priority="4" numLanes="1" speed="13.89" disallow="tram rail_urban rail rail_electric rail_fast ship container cable_car subway aircraft wheelchair scooter drone" oneway="0"/>

    <edge id=":1076899472_0" function="internal">
        <lane id=":1076899472_0_0" index="0" disallow="pedestrian bicycle tram rail_urban rail rail_electric rail_fast ship container cable_car subway aircraft wheelchair scooter drone" speed="27.78" length="0.27" shape="350.77,1968.73 350.68,1968.97"/>
        <lane id=":1076899472_0_1" index="1" disallow="pedestrian bicycle tram rail_urban rail rail_electric rail_fast ship container cable_car subway aircraft wheelchair scooter drone" speed="27.78" length="0.27" shape="347.76,1967.64 347.66,1967.91"/>
    </edge>
    <edge id=":1076899472_2" function="internal">
        <lane id=":1076899472_2_0" index="0" disallow="pedestrian bicycle tram rail_urban rail rail_electric rail_fast ship container cable_car subway aircraft wheelchair scooter drone" speed="27.78" length="0.32" shape="341.62,1965.79 341.73,1965.47"/>
        <lane id=":1076899472_2_1" index="1" disallow="pedestrian bicycle tram rail_urban rail rail_electric rail_fast ship container cable_car subway aircraft wheelchair scooter drone" speed="27.78" length="0.32" shape="344.64,1966.85 344.75,1966.56"/>
    </edge>
    <edge id=":1076899472_w0" function="walkingarea">
        <lane id=":1076899472_w0_0" index="0" allow="pedestrian" speed="2.78" length="0.24" width="1.50" shape="352.19,1969.50 353.60,1970.00 353.68,1969.78 352.27,1969.27"/>
    </edge>
    <edge id=":1076899472_w1" function="walkingarea">
        <lane id=":1076899472_w1_0" index="0" allow="pedestrian" speed="2.78" length="0.36" width="1.50" shape="340.23,1964.93 338.82,1964.42 338.70,1964.76 340.11,1965.26"/>
    </edge>
    <edge id=":1077037926_0" function="internal">
        <lane id=":1077037926_0_0" index="0" disallow="pedestrian tram rail_urban rail rail_electric rail_fast ship container cable_car subway aircraft wheelchair scooter drone" speed="3.65" length="4.67" shape="576.27,654.39 575.50,653.18 575.46,652.28 576.15,651.71 577.57,651.47"/>
    </edge>
    <edge id=":1077037926_w0" function="walkingarea">
        <lane id=":1077037926_w0_0" index="0" allow="pedestrian" speed="2.78" length="7.90" width="1.50" shape="578.22,650.00 578.82,648.63 575.02,657.23 575.62,655.86"/>
    </edge>
    <edge id=":1088493050_0" function="internal">
        <lane id=":1088493050_0_0" index="0" disallow="pedestrian tram rail_urban rail rail_electric rail_fast ship container cable_car subway aircraft wheelchair scooter drone" speed="3.65" length="4.67" shape="847.10,1331.00 847.92,1332.19 848.00,1333.08 847.33,1333.68 845.92,1333.98"/>
    </edge>
    <edge id=":1088493050_w0" function="walkingarea">
        <lane id=":1088493050_w0_0" index="0" allow="pedestrian" speed="2.78" length="7.90" width="1.50" shape="845.32,1335.46 844.77,1336.86 848.25,1328.12 847.70,1329.52"/>
    </edge>
    <edge id=":1088493466_0" function="internal">
        <lane id=":1088493466_0_0" index="0" disallow="pedestrian tram rail_urban rail rail_electric rail_fast ship container cable_car subway aircraft wheelchair scooter drone" speed="3.65" length="4.67" shape="676.31,1362.93 675.06,1363.64 674.16,1363.64 673.63,1362.92 673.45,1361.49"/>
    </edge>
    <edge id=":1088493466_w0" function="walkingarea">
        <lane id=":1088493466_w0_0" index="0" allow="pedestrian" speed="2.78" length="7.90" width="1.50" shape="672.02,1360.78 670.68,1360.10 679.08,1364.32 677.74,1363.64"/>
    </edge>
    <edge id=":1088493552_0" function="internal">
        <lane id=":1088493552_0_0" index="0" disallow="pedestrian tram rail_urban rail rail_electric rail_fast ship container cable_car subway aircraft wheelchair scooter drone" speed="6.45" length="8.29" shape="721.45,1284.30 719.27,1283.77 717.39,1284.03 715.81,1285.08 714.53,1286.93"/>
    </edge>
    <edge id=":1088493552_1" function="internal">
        <lane id=":1088493552_1_0" index="0" disallow="pedestrian tram rail_urban rail rail_electric rail_fast ship container cable_car subway aircraft wheelchair scooter drone" speed="13.89" length="13.14" shape="721.45,1284.30 717.83,1282.84 715.41,1281.72 713.09,1280.38 709.82,1278.25"/>
    </edge>
    <edge id=":1088493552_2" function="internal">
        <lane id=":1088493552_2_0" index="0" disallow="pedestrian tram rail_urban rail rail_electric rail_fast ship container cable_car subway aircraft wheelchair scooter drone" speed="3.65" length="1.44" shape="721.45,1284.30 720.63,1283.11"/>
    </edge>
    <edge id=":1088493552_9" function="internal">
        <lane id=":1088493552_9_0" index="0" disallow="pedestrian tram rail_urban rail rail_electric rail_fast ship container cable_car subway aircraft wheelchair scooter drone" speed="3.65" length="3.23" shape="720.63,1283.11 720.55,1282.22 721.22,1281.63 722.63,1281.33"/>
    </edge>
    <edge id=":1088493552_3" function="internal">
        <lane id=":1088493552_3_0" index="0" disallow="pedestrian tram rail_urban rail rail_electric rail_fast ship container cable_car subway aircraft wheelchair scooter drone" speed="13.89" length="12.49" shape="711.58,1275.58 714.69,1277.60 716.89,1278.87 719.20,1279.94 722.63,1281.33"/>
    </edge>
    <edge id=":1088493552_4" function="internal">
        <lane id=":1088493552_4_0" index="0" disallow="pedestrian tram rail_urban rail rail_electric rail_fast ship container cable_car subway aircraft wheelchair scooter drone" speed="8.04" length="3.77" shape="711.58,1275.58 714.20,1277.89 714.33,1278.14"/>
    </edge>
    <edge id=":1088493552_5" function="internal">
        <lane id=":1088493552_5_0" index="0" disallow="pedestrian tram rail_urban rail rail_electric rail_fast ship container cable_car subway aircraft wheelchair scooter drone" speed="3.65" length="1.44" shape="711.58,1275.58 712.15,1276.91"/>
    </edge>
    <edge id=":1088493552_10" function="internal">
        <lane id=":1088493552_10_0" index="0" disallow="pedestrian tram rail_urban rail rail_electric rail_fast ship container cable_car subway aircraft wheelchair scooter drone" speed="8.04" length="9.28" shape="714.33,1278.14 715.57,1280.56 715.68,1283.57 714.53,1286.93"/>
    </edge>
    <edge id=":1088493552_11" function="internal">
        <lane id=":1088493552_11_0" index="0" disallow="pedestrian tram rail_urban rail rail_electric rail_fast ship container cable_car subway aircraft wheelchair scooter drone" speed="3.65" length="3.23" shape="712.15,1276.91 712.04,1277.80 711.27,1278.25 709.82,1278.25"/>
    </edge>
    <edge id=":1088493552_6" function="internal">
        <lane id=":1088493552_6_0" index="0" disallow="pedestrian tram rail_urban rail rail_electric rail_fast ship container cable_car subway aircraft wheelchair scooter drone" speed="6.54" length="8.32" shape="711.67,1285.50 712.41,1283.35 712.35,1281.42 711.48,1279.72 709.82,1278.25"/>
    </edge>
    <edge id=":1088493552_7" function="internal">
        <lane id=":1088493552_7_0" index="0" disallow="pedestrian tram rail_urban rail rail_electric rail_fast ship container cable_car subway aircraft wheelchair scooter drone" speed="7.96" length="13.14" shape="711.67,1285.50 713.69,1282.57 716.19,1280.90 719.17,1280.48 722.63,1281.33"/>
    </edge>
    <edge id=":1088493552_8" function="internal">
        <lane id=":1088493552_8_0" index="0" disallow="pedestrian tram rail_urban rail rail_electric rail_fast ship container cable_car subway aircraft wheelchair scooter drone" speed="3.65" length="4.67" shape="711.67,1285.50 712.92,1284.78 713.82,1284.78 714.35,1285.50 714.53,1286.93"/>
    </edge>
    <edge id=":1088493552_w0" function="walkingarea">
        <lane id=":1088493552_w0_0" index="0" allow="pedestrian" speed="2.78" length="4.22" width="1.50" shape="715.96,1287.65 717.30,1288.32 720.30,1287.18 720.85,1285.79 719.80,1285.47 718.84,1285.41 717.98,1285.59 717.21,1286.03 716.54,1286.71"/>
    </edge>
    <edge id=":1088493552_w1" function="walkingarea">
        <lane id=":1088493552_w1_0" index="0" allow="pedestrian" speed="2.78" length="11.98" width="1.50" shape="723.23,1279.84 723.78,1278.45 713.29,1272.99 712.46,1274.24 714.63,1275.66 716.25,1276.68 717.63,1277.45 719.06,1278.13 720.82,1278.88"/>
    </edge>
    <edge id=":1088493552_w2" function="walkingarea">
        <lane id=":1088493552_w2_0" index="0" allow="pedestrian" speed="2.78" length="4.35" width="1.50" shape="708.95,1279.59 708.12,1280.84 708.90,1284.11 710.24,1284.78 710.66,1283.73 710.82,1282.75 710.73,1281.85 710.39,1281.02 709.79,1280.27"/>
    </edge>
    <edge id=":1088494129_0" function="internal">
        <lane id=":1088494129_0_0" index="0" disallow="pedestrian bicycle tram rail_urban rail rail_electric rail_fast ship container cable_car subway aircraft wheelchair scooter drone" speed="7.12" length="9.64" shape="683.57,1260.97 681.05,1259.69 678.75,1259.31 676.67,1259.84 674.82,1261.27"/>
    </edge>
    <edge id=":1088494129_1" function="internal">
        <lane id=":1088494129_1_0" index="0" disallow="pedestrian bicycle tram rail_urban rail rail_electric rail_fast ship container cable_car subway aircraft wheelchair scooter drone" speed="8.57" length="17.66" shape="683.57,1260.97 679.32,1257.45 677.17,1253.85 677.11,1250.17 679.13,1246.41"/>
    </edge>
    <edge id=":1088494129_2" function="internal">
        <lane id=":1088494129_2_0" index="0" disallow="pedestrian tram rail_urban rail rail_electric rail_fast ship container cable_car subway aircraft wheelchair scooter drone" speed="3.65" length="4.67" shape="683.57,1260.97 683.01,1259.64 683.11,1258.76 683.88,1258.31 685.33,1258.30"/>
    </edge>
    <edge id=":1088494129_3" function="internal">
        <lane id=":1088494129_3_0" index="0" disallow="pedestrian bicycle tram rail_urban rail rail_electric rail_fast ship container cable_car subway aircraft wheelchair scooter drone" speed="6.38" length="9.29" shape="684.11,1250.44 682.79,1252.66 682.55,1254.71 683.40,1256.59 685.33,1258.30"/>
    </edge>
    <edge id=":1088494129_4" function="internal">
        <lane id=":1088494129_4_0" index="0" disallow="pedestrian bicycle tram rail_urban rail rail_electric rail_fast ship container cable_car subway aircraft wheelchair scooter drone" speed="27.78" length="14.16" shape="684.11,1250.44 674.82,1261.27"/>
        <lane id=":1088494129_4_1" index="1" disallow="pedestrian bicycle tram rail_urban rail rail_electric rail_fast ship container cable_car subway aircraft wheelchair scooter drone" speed="27.78" length="14.16" shape="681.62,1248.43 672.47,1259.10"/>
    </edge>
    <edge id=":1088494129_6" function="internal">
        <lane id=":1088494129_6_0" index="0" disallow="pedestrian bicycle tram rail_urban rail rail_electric rail_fast ship container cable_car subway aircraft wheelchair scooter drone" speed="3.65" length="1.44" shape="681.62,1248.43 680.24,1248.86"/>
    </edge>
    <edge id=":1088494129_11" function="internal">
        <lane id=":1088494129_11_0" index="0" disallow="pedestrian bicycle tram rail_urban rail rail_electric rail_fast ship container cable_car subway aircraft wheelchair scooter drone" speed="3.65" length="3.23" shape="680.24,1248.86 679.37,1248.66 679.00,1247.85 679.13,1246.41"/>
    </edge>
    <edge id=":1088494129_7" function="internal">
        <lane id=":1088494129_7_0" index="0" disallow="pedestrian bicycle tram rail_urban rail rail_electric rail_fast ship container cable_car subway aircraft wheelchair scooter drone" speed="27.78" length="13.75" shape="667.77,1254.76 676.65,1244.40"/>
        <lane id=":1088494129_7_1" index="1" disallow="pedestrian bicycle tram rail_urban rail rail_electric rail_fast ship container cable_car subway aircraft wheelchair scooter drone" speed="27.78" length="13.75" shape="670.12,1256.93 679.13,1246.41"/>
    </edge>
    <edge id=":1088494129_9" function="internal">
        <lane id=":1088494129_9_0" index="0" disallow="pedestrian bicycle tram rail_urban rail rail_electric rail_fast ship container cable_car subway aircraft wheelchair scooter drone" speed="9.18" length="2.82" shape="670.12,1256.93 672.45,1255.33"/>
    </edge>
    <edge id=":1088494129_10" function="internal">
        <lane id=":1088494129_10_0" index="0" disallow="pedestrian bicycle tram rail_urban rail rail_electric rail_fast ship container cable_car subway aircraft wheelchair scooter drone" speed="3.65" length="1.44" shape="670.12,1256.93 671.52,1256.59"/>
    </edge>
    <edge id=":1088494129_12" function="internal">
        <lane id=":1088494129_12_0" index="0" disallow="pedestrian bicycle tram rail_urban rail rail_electric rail_fast ship container cable_car subway aircraft wheelchair scooter drone" speed="9.18" length="13.82" shape="672.45,1255.33 672.93,1255.00 676.40,1254.59 680.54,1255.68 685.33,1258.30"/>
    </edge>
    <edge id=":1088494129_13" function="internal">
        <lane id=":1088494129_13_0" index="0" disallow="pedestrian bicycle tram rail_urban rail rail_electric rail_fast ship container cable_car subway aircraft wheelchair scooter drone" speed="3.65" length="3.23" shape="671.52,1256.59 672.38,1256.84 672.70,1257.68 672.47,1259.10"/>
    </edge>
    <edge id=":1088494129_w0" function="walkingarea">
        <lane id=":1088494129_w0_0" index="0" allow="pedestrian" speed="2.78" length="5.73" width="1.50" shape="676.00,1262.36 677.10,1263.38 681.86,1263.56 682.69,1262.31 681.35,1261.55 680.11,1261.11 678.95,1260.96 677.88,1261.12 676.89,1261.59"/>
    </edge>
    <edge id=":1088494129_w1" function="walkingarea">
        <lane id=":1088494129_w1_0" index="0" allow="pedestrian" speed="2.78" length="4.47" width="1.50" shape="686.21,1256.96 687.03,1255.71 686.52,1252.39 685.35,1251.45 684.65,1252.50 684.28,1253.50 684.26,1254.44 684.57,1255.33 685.22,1256.17"/>
    </edge>
    <edge id=":1088494129_w2" function="walkingarea">
        <lane id=":1088494129_w2_0" index="0" allow="pedestrian" speed="2.78" length="13.49" width="1.50" shape="675.40,1243.39 674.24,1242.45 665.49,1252.66 666.60,1253.67"/>
    </edge>
    <edge id=":1090201245_0" function="internal">
        <lane id=":1090201245_0_0" index="0" disallow="pedestrian tram rail_urban rail rail_electric rail_fast ship container cable_car subway aircraft wheelchair scooter drone" speed="3.65" length="4.67" shape="1709.65,1302.67 1710.31,1303.95 1710.26,1304.84 1709.52,1305.35 1708.09,1305.45"/>
    </edge>
    <edge id=":1090201245_w0" function="walkingarea">
        <lane id=":1090201245_w0_0" index="0" allow="pedestrian" speed="2.78" length="7.90" width="1.50" shape="1707.30,1306.85 1706.57,1308.16 1711.17,1299.96 1710.44,1301.27"/>
    </edge>
    <edge id=":1090904372_0" function="internal">
        <lane id=":1090904372_0_0" index="0" disallow="pedestrian tram rail_urban rail rail_electric rail_fast ship container cable_car subway aircraft wheelchair scooter drone" speed="13.89" length="11.95" shape="1335.42,667.26 1334.46,663.88 1333.48,661.65 1332.08,659.63 1329.87,656.87"/>
    </edge>
    <edge id=":1090904372_1" function="internal">
        <lane id=":1090904372_1_0" index="0" disallow="pedestrian tram rail_urban rail rail_electric rail_fast ship container cable_car subway aircraft wheelchair scooter drone" speed="9.31" length="3.35" shape="1335.42,667.26 1335.12,664.16 1335.17,663.93"/>
    </edge>
    <edge id=":1090904372_2" function="internal">
        <lane id=":1090904372_2_0" index="0" disallow="pedestrian tram rail_urban rail rail_electric rail_fast ship container cable_car subway aircraft wheelchair scooter drone" speed="3.65" length="1.44" shape="1335.42,667.26 1335.90,665.90"/>
    </edge>
    <edge id=":1090904372_9" function="internal">
        <lane id=":1090904372_9_0" index="0" disallow="pedestrian tram rail_urban rail rail_electric rail_fast ship container cable_car subway aircraft wheelchair scooter drone" speed="9.31" length="9.87" shape="1335.17,663.93 1335.82,661.21 1337.53,658.41 1340.24,655.76"/>
    </edge>
    <edge id=":1090904372_10" function="internal">
        <lane id=":1090904372_10_0" index="0" disallow="pedestrian tram rail_urban rail rail_electric rail_fast ship container cable_car subway aircraft wheelchair scooter drone" speed="3.65" length="3.23" shape="1335.90,665.90 1336.58,665.32 1337.45,665.51 1338.52,666.48"/>
    </edge>
    <edge id=":1090904372_3" function="internal">
        <lane id=":1090904372_3_0" index="0" disallow="pedestrian tram rail_urban rail rail_electric rail_fast ship container cable_car subway aircraft wheelchair scooter drone" speed="7.99" length="9.55" shape="1342.24,658.26 1340.20,660.22 1338.90,662.24 1338.34,664.33 1338.52,666.48"/>
    </edge>
    <edge id=":1090904372_4" function="internal">
        <lane id=":1090904372_4_0" index="0" disallow="pedestrian tram rail_urban rail rail_electric rail_fast ship container cable_car subway aircraft wheelchair scooter drone" speed="8.00" length="14.20" shape="1342.24,658.26 1338.89,660.24 1335.71,660.66 1332.70,659.54 1329.87,656.87"/>
    </edge>
    <edge id=":1090904372_5" function="internal">
        <lane id=":1090904372_5_0" index="0" disallow="pedestrian tram rail_urban rail rail_electric rail_fast ship container cable_car subway aircraft wheelchair scooter drone" speed="3.65" length="4.67" shape="1342.24,658.26 1340.80,658.39 1339.99,658.01 1339.81,657.14 1340.24,655.76"/>
    </edge>
    <edge id=":1090904372_6" function="internal">
        <lane id=":1090904372_6_0" index="0" disallow="pedestrian tram rail_urban rail rail_electric rail_fast ship container cable_car subway aircraft wheelchair scooter drone" speed="6.51" length="9.04" shape="1332.37,654.87 1334.18,656.57 1336.09,657.29 1338.11,657.02 1340.24,655.76"/>
    </edge>
    <edge id=":1090904372_7" function="internal">
        <lane id=":1090904372_7_0" index="0" disallow="pedestrian tram rail_urban rail rail_electric rail_fast ship container cable_car subway aircraft wheelchair scooter drone" speed="13.89" length="13.31" shape="1332.37,654.87 1334.83,657.96 1336.38,660.22 1337.45,662.70 1338.52,666.48"/>
    </edge>
    <edge id=":1090904372_8" function="internal">
        <lane id=":1090904372_8_0" index="0" disallow="pedestrian tram rail_urban rail rail_electric rail_fast ship container cable_car subway aircraft wheelchair scooter drone" speed="3.65" length="1.44" shape="1332.37,654.87 1332.50,656.31"/>
    </edge>
    <edge id=":1090904372_11" function="internal">
        <lane id=":1090904372_11_0" index="0" disallow="pedestrian tram rail_urban rail rail_electric rail_fast ship container cable_car subway aircraft wheelchair scooter drone" speed="3.65" length="3.23" shape="1332.50,656.31 1332.12,657.12 1331.24,657.31 1329.87,656.87"/>
    </edge>
    <edge id=":1090904372_w0" function="walkingarea">
        <lane id=":1090904372_w0_0" index="0" allow="pedestrian" speed="2.78" length="10.80" width="1.50" shape="1328.62,657.86 1327.44,658.80 1332.41,668.03 1333.87,667.66 1333.25,665.36 1332.67,663.69 1332.03,662.37 1331.21,661.14 1330.11,659.72"/>
    </edge>
    <edge id=":1090904372_w1" function="walkingarea">
        <lane id=":1090904372_w1_0" index="0" allow="pedestrian" speed="2.78" length="6.49" width="1.50" shape="1340.07,666.08 1341.53,665.72 1344.18,660.69 1343.24,659.51 1342.03,660.59 1341.10,661.67 1340.44,662.76 1340.04,663.86 1339.92,664.97"/>
    </edge>
    <edge id=":1090904372_w2" function="walkingarea">
        <lane id=":1090904372_w2_0" index="0" allow="pedestrian" speed="2.78" length="4.59" width="1.50" shape="1339.25,654.51 1338.31,653.34 1334.80,652.94 1333.63,653.88 1334.48,654.76 1335.36,655.34 1336.28,655.60 1337.23,655.55 1338.22,655.19"/>
    </edge>
    <edge id=":1090904429_0" function="internal">
        <lane id=":1090904429_0_0" index="0" disallow="pedestrian tram rail_urban rail rail_electric rail_fast ship container cable_car subway aircraft wheelchair scooter drone" speed="3.65" length="4.67" shape="1418.59,820.80 1417.53,821.77 1416.65,821.96 1415.97,821.38 1415.49,820.02"/>
    </edge>
    <edge id=":1090904429_w0" function="walkingarea">
        <lane id=":1090904429_w0_0" index="0" allow="pedestrian" speed="2.78" length="7.90" width="1.50" shape="1413.94,819.63 1412.48,819.27 1421.60,821.55 1420.14,821.19"/>
    </edge>
    <edge id=":1090904443_0" function="internal">
        <lane id=":1090904443_0_0" index="0" disallow="pedestrian tram rail_urban rail rail_electric rail_fast ship container cable_car subway aircraft wheelchair scooter drone" speed="3.65" length="4.67" shape="1630.45,949.31 1631.20,950.54 1631.23,951.43 1630.53,951.99 1629.11,952.21"/>
    </edge>
    <edge id=":1090904443_w0" function="walkingarea">
        <lane id=":1090904443_w0_0" index="0" allow="pedestrian" speed="2.78" length="7.90" width="1.50" shape="1628.44,953.66 1627.81,955.03 1631.75,946.49 1631.12,947.86"/>
    </edge>
    <edge id=":1090904476_0" function="internal">
        <lane id=":1090904476_0_0" index="0" disallow="pedestrian tram rail_urban rail rail_electric rail_fast ship container cable_car subway aircraft wheelchair scooter drone" speed="8.08" length="12.22" shape="1279.74,607.15 1276.98,605.59 1274.21,605.16 1271.42,605.86 1268.60,607.69"/>
    </edge>
    <edge id=":1090904476_1" function="internal">
        <lane id=":1090904476_1_0" index="0" disallow="pedestrian tram rail_urban rail rail_electric rail_fast ship container cable_car subway aircraft wheelchair scooter drone" speed="13.89" length="16.84" shape="1279.74,607.15 1266.08,597.31"/>
    </edge>
    <edge id=":1090904476_2" function="internal">
        <lane id=":1090904476_2_0" index="0" disallow="pedestrian tram rail_urban rail rail_electric rail_fast ship container cable_car subway aircraft wheelchair scooter drone" speed="7.81" length="15.53" shape="1279.74,607.15 1276.70,604.00 1275.63,600.79 1276.53,597.54 1279.42,594.24"/>
    </edge>
    <edge id=":1090904476_3" function="internal">
        <lane id=":1090904476_3_0" index="0" disallow="pedestrian tram rail_urban rail rail_electric rail_fast ship container cable_car subway aircraft wheelchair scooter drone" speed="3.65" length="4.67" shape="1279.74,607.15 1279.28,605.79 1279.46,604.91 1280.26,604.52 1281.70,604.63"/>
    </edge>
    <edge id=":1090904476_4" function="internal">
        <lane id=":1090904476_4_0" index="0" disallow="pedestrian tram rail_urban rail rail_electric rail_fast ship container cable_car subway aircraft wheelchair scooter drone" speed="6.27" length="9.57" shape="1281.50,596.66 1279.73,598.70 1279.17,600.71 1279.83,602.68 1281.70,604.63"/>
    </edge>
    <edge id=":1090904476_5" function="internal">
        <lane id=":1090904476_5_0" index="0" disallow="pedestrian tram rail_urban rail rail_electric rail_fast ship container cable_car subway aircraft wheelchair scooter drone" speed="13.89" length="16.97" shape="1281.50,596.66 1268.60,607.69"/>
    </edge>
    <edge id=":1090904476_6" function="internal">
        <lane id=":1090904476_6_0" index="0" disallow="pedestrian tram rail_urban rail rail_electric rail_fast ship container cable_car subway aircraft wheelchair scooter drone" speed="9.65" length="4.51" shape="1281.50,596.66 1277.85,599.02 1277.69,599.05"/>
    </edge>
    <edge id=":1090904476_7" function="internal">
        <lane id=":1090904476_7_0" index="0" disallow="pedestrian tram rail_urban rail rail_electric rail_fast ship container cable_car subway aircraft wheelchair scooter drone" speed="3.65" length="1.44" shape="1281.50,596.66 1280.07,596.84"/>
    </edge>
    <edge id=":1090904476_16" function="internal">
        <lane id=":1090904476_16_0" index="0" disallow="pedestrian tram rail_urban rail rail_electric rail_fast ship container cable_car subway aircraft wheelchair scooter drone" speed="9.65" length="12.24" shape="1277.69,599.05 1274.05,599.91 1270.13,599.34 1266.08,597.31"/>
    </edge>
    <edge id=":1090904476_17" function="internal">
        <lane id=":1090904476_17_0" index="0" disallow="pedestrian tram rail_urban rail rail_electric rail_fast ship container cable_car subway aircraft wheelchair scooter drone" speed="3.65" length="3.23" shape="1280.07,596.84 1279.25,596.49 1279.03,595.63 1279.42,594.24"/>
    </edge>
    <edge id=":1090904476_8" function="internal">
        <lane id=":1090904476_8_0" index="0" disallow="pedestrian tram rail_urban rail rail_electric rail_fast ship container cable_car subway aircraft wheelchair scooter drone" speed="8.41" length="12.54" shape="1267.86,594.65 1270.91,596.19 1273.86,596.63 1276.69,595.98 1279.42,594.24"/>
    </edge>
    <edge id=":1090904476_9" function="internal">
        <lane id=":1090904476_9_0" index="0" disallow="pedestrian tram rail_urban rail rail_electric rail_fast ship container cable_car subway aircraft wheelchair scooter drone" speed="13.89" length="17.06" shape="1267.86,594.65 1281.70,604.63"/>
    </edge>
    <edge id=":1090904476_10" function="internal">
        <lane id=":1090904476_10_0" index="0" disallow="pedestrian tram rail_urban rail rail_electric rail_fast ship container cable_car subway aircraft wheelchair scooter drone" speed="7.76" length="16.08" shape="1267.86,594.65 1271.28,597.73 1272.54,600.92 1271.65,604.25 1268.60,607.69"/>
    </edge>
    <edge id=":1090904476_11" function="internal">
        <lane id=":1090904476_11_0" index="0" disallow="pedestrian tram rail_urban rail rail_electric rail_fast ship container cable_car subway aircraft wheelchair scooter drone" speed="3.65" length="4.67" shape="1267.86,594.65 1268.41,595.98 1268.30,596.87 1267.52,597.31 1266.08,597.31"/>
    </edge>
    <edge id=":1090904476_12" function="internal">
        <lane id=":1090904476_12_0" index="0" disallow="pedestrian tram rail_urban rail rail_electric rail_fast ship container cable_car subway aircraft wheelchair scooter drone" speed="6.20" length="9.80" shape="1266.53,605.26 1268.38,603.16 1268.93,601.13 1268.16,599.18 1266.08,597.31"/>
    </edge>
    <edge id=":1090904476_13" function="internal">
        <lane id=":1090904476_13_0" index="0" disallow="pedestrian tram rail_urban rail rail_electric rail_fast ship container cable_car subway aircraft wheelchair scooter drone" speed="13.89" length="16.96" shape="1266.53,605.26 1279.42,594.24"/>
    </edge>
    <edge id=":1090904476_14" function="internal">
        <lane id=":1090904476_14_0" index="0" disallow="pedestrian tram rail_urban rail rail_electric rail_fast ship container cable_car subway aircraft wheelchair scooter drone" speed="9.35" length="4.68" shape="1266.53,605.26 1270.34,602.78 1270.47,602.75"/>
    </edge>
    <edge id=":1090904476_15" function="internal">
        <lane id=":1090904476_15_0" index="0" disallow="pedestrian tram rail_urban rail rail_electric rail_fast ship container cable_car subway aircraft wheelchair scooter drone" speed="3.65" length="1.44" shape="1266.53,605.26 1267.96,605.09"/>
    </edge>
    <edge id=":1090904476_18" function="internal">
        <lane id=":1090904476_18_0" index="0" disallow="pedestrian tram rail_urban rail rail_electric rail_fast ship container cable_car subway aircraft wheelchair scooter drone" speed="9.35" length="11.96" shape="1270.47,602.75 1274.13,601.85 1277.92,602.47 1281.70,604.63"/>
    </edge>
    <edge id=":1090904476_19" function="internal">