<?xml version="1.0" encoding="UTF-8"?>

<routes>
    <vType id="ped" vClass="pedestrian" 
        impatience="0.2" 
        mDriveAfterRedTime="-1" 
        guiShape="pedestrian"/>

    <vType id="car" vClass="passenger" 
        probability="0.413"
        guiShape="passenger"/>

    <vType id="jeep" vClass="bus" 
        probability="0.17"
        guiShape="passenger/van" 
        length="8" 
        width="2" 
        mass="500" 
        maxSpeed="100" 
        desiredMaxSpeed="60" 
        personCapacity="20"/>

    <vType id="bus" vClass="bus" 
        probability="0.06"
        guiShape="bus"/>

    <vType id="truck" vClass="truck" 
        probability="0.13"
        guiShape="truck"/>

    <vType id="motorcycle" vClass="motorcycle" 
        probability="0.1135"
        width="0.8"
        minGap="0.5" 
        guiShape="motorcycle"/>

    <vType id="tricycle" vClass="motorcycle" 
        probability="0.1135"
        guiShape="motorcycle" 
        width="1.5" 
        accel="2" 
        maxSpeed="50" 
        personCapacity="4"/>

    <vTypeDistribution id="PublicTranspo" vTypes="jeep bus tricycle"/>
    <vTypeDistribution id="AguinaldoHighway" vTypes="car jeep bus truck motorcycle tricycle"/>

    <!-- ============================================ -->
    <!-- 6:00 - 6:30 MODERATE/SLOW (0-1800s)         -->
    <!-- probability = 0.0142 (Normal baseline)       -->
    <!-- ============================================ -->

    <!-- Pedestrians - SLOW (160/hr) -->
    <personFlow id="JollibeetoPalengke_1" type="ped" begin="0.00" end="1800.00" personsPerHour="160" departPos="25">
        <personTrip from="32083309#6" to="32083256"/>
    </personFlow>
    <personFlow id="JollibeetoSTI_1" type="ped" begin="0.00" end="1800.00" personsPerHour="160" departPos="25">
        <personTrip from="32083309#6" to="1287979763"/>
    </personFlow>
    <personFlow id="JollibeetoTarget_1" type="ped" begin="0.00" end="1800.00" personsPerHour="160" departPos="25">
        <personTrip from="32083309#6" to="323641561#0"/>
    </personFlow>
    <personFlow id="JollibeetoPureGold_1" type="ped" begin="0.00" end="1800.00" personsPerHour="160" departPos="25">
        <personTrip from="32083309#6" to="777622118"/>
    </personFlow>
    <personFlow id="PalengketoJollibee_1" type="ped" begin="0.00" end="1800.00" personsPerHour="160" departPos="25">
        <personTrip from="32083256" to="32083309#6"/>
    </personFlow>
    <personFlow id="PalengketoSTI_1" type="ped" begin="0.00" end="1800.00" personsPerHour="160" departPos="25">
        <personTrip from="32083309#6" to="1287979763"/>
    </personFlow>
    <personFlow id="PalengketoTarget_1" type="ped" begin="0.00" end="1800.00" personsPerHour="160" departPos="25">
        <personTrip from="32083309#6" to="323641561#0"/>
    </personFlow>
    <personFlow id="PalengketoPuregold_1" type="ped" begin="0.00" end="1800.00" personsPerHour="160" departPos="25">
        <personTrip from="32083309#6" to="777622118"/>
    </personFlow>
    <personFlow id="STItoSakayan_1" type="ped" begin="0.00" end="1800.00" personsPerHour="160" departPos="25">
        <personTrip from="1287979763" to="32083256"/>
    </personFlow>
    <personFlow id="TargettoSakayan_1" type="ped" begin="0.00" end="1800.00" personsPerHour="160" departPos="25">
        <personTrip from="323641561#0" to="32083256"/>
    </personFlow>
    <personFlow id="PuregoldtoSakayan_1" type="ped" begin="0.00" end="1800.00" personsPerHour="160" departPos="25">
        <personTrip from="777622118" to="32083256"/>
    </personFlow>

    <!-- Vehicles - NORMAL (0.0142) -->
    <flow id="BiñantoBalibago_1" type="PublicTranspo" begin="0.00" end="1800.00" from="553887793#0" to="-32083237#0" via="39469992#3" probability="0.0142" departLane="best" departSpeed="max"/>
    <flow id="BiñantoNuvali_1" type="AguinaldoHighway" begin="0.00" end="1800.00" from="553887793#0" to="145507700#3" probability="0.0142" departLane="best" departSpeed="max"/>
    <flow id="BiñantoCalamba_1" type="AguinaldoHighway" begin="0.00" end="1800.00" from="553887793#0" to="-185930141#0" probability="0.0142" departLane="best" departSpeed="max"/>
    <flow id="BiñantoStaRosa_1" type="AguinaldoHighway" begin="0.00" end="1800.00" from="553887793#0" to="-92878383#0" probability="0.0142" departLane="best" departSpeed="max"/>
    <flow id="BalibagotoBiñan_1" type="PublicTranspo" begin="0.00" end="1800.00" from="145507698" to="-553887793#0" via="777619922#1 89908334 32083216#2 1081562671" probability="0.0142" departLane="best" departSpeed="max"/>
    <flow id="BalibagotoStaRosa_1" type="PublicTranspo" begin="0.00" end="1800.00" from="145507698" to="-92878383#0" via="777619922#1 89908334 32083216#2 1081562671" probability="0.0142" departLane="best" departSpeed="max"/>
    <flow id="BalibagotoCalamba_1" type="PublicTranspo" begin="0.00" end="1800.00" from="145507698" to="-185930141#0" via="777619922#1 89908334 32083216#2 -186159871#1" probability="0.0142" departLane="best" departSpeed="max"/>
    <flow id="BalibagotoNuvali_1" type="PublicTranspo" begin="0.00" end="1800.00" from="777619905" to="145507700#3" via="145507698" probability="0.0142" departLane="best" departSpeed="max"/>
    <flow id="StaRosatoCalamba_1" type="AguinaldoHighway" begin="0.00" end="1800.00" from="92878383#0" to="-185930141#0" probability="0.0142" departLane="best" departSpeed="max"/>
    <flow id="StaRosatoBalibago_1" type="PublicTranspo" begin="0.00" end="1800.00" from="92878383#0" to="-32083237#0" via="39469992#3" probability="0.0142" departLane="best" departSpeed="max"/>
    <flow id="StaRosatoBiñan_1" type="AguinaldoHighway" begin="0.00" end="1800.00" from="92878383#0" to="-553887793#0" probability="0.0142" departLane="best" departSpeed="max"/>
    <flow id="StaRosatoNuvali_1" type="AguinaldoHighway" begin="0.00" end="1800.00" from="92878383#0" to="145507700#3" probability="0.0142" departLane="best" departSpeed="max"/>
    <flow id="NuvalitoBalibago_1" type="PublicTranspo" begin="0.00" end="1800.00" from="-145507700#3" to="32083201#1" via="145507703 32082965 32083262" probability="0.0142" departLane="best" departSpeed="max"/>
    <flow id="NuvalitoBiñan_1" type="AguinaldoHighway" begin="0.00" end="1800.00" from="-145507700#3" to="-553887793#0" probability="0.0142" departLane="best" departSpeed="max"/>
    <flow id="NuvalitoStaRosa_1" type="AguinaldoHighway" begin="0.00" end="1800.00" from="-145507700#3" to="-92878383#0" via="-1413610384" probability="0.0142" departLane="best" departSpeed="max"/>
    <flow id="NuvalitoCalamba_1" type="AguinaldoHighway" begin="0.00" end="1800.00" from="-145507700#3" to="-185930141#0" probability="0.0142" departLane="best" departSpeed="max"/>
    <flow id="CalambatoBalibago_1" type="PublicTranspo" begin="0.00" end="1800.00" from="185930141#0" to="89908334" via="185601451#0" probability="0.0142" departLane="best" departSpeed="max"/>
    <flow id="CalambatoStaRosa_1" type="AguinaldoHighway" begin="0.00" end="1800.00" from="185930141#0" to="-92878383#0" probability="0.0142" departLane="best" departSpeed="max"/>
    <flow id="CalambatoNuvali_1" type="AguinaldoHighway" begin="0.00" end="1800.00" from="185930141#0" to="145507700#3" probability="0.0142" departLane="best" departSpeed="max"/>
    <flow id="CalambatoBiñan_1" type="AguinaldoHighway" begin="0.00" end="1800.00" from="185930141#0" to="-553887793#0" probability="0.0142" departLane="best" departSpeed="max"/>

    <!-- ============================================ -->
    <!-- 6:30 - 9:00 HEAVY RUSH (1800-10800s)        -->
    <!-- probability = 0.0480 (Jam)                  -->
    <!-- ============================================ -->

    <!-- Pedestrians - JAM (240/hr) -->
    <personFlow id="JollibeetoPalengke_2" type="ped" begin="1800.00" end="10800.00" personsPerHour="240" departPos="25">
        <personTrip from="32083309#6" to="32083256"/>
    </personFlow>
    <personFlow id="JollibeetoSTI_2" type="ped" begin="1800.00" end="10800.00" personsPerHour="240" departPos="25">
        <personTrip from="32083309#6" to="1287979763"/>
    </personFlow>
    <personFlow id="JollibeetoTarget_2" type="ped" begin="1800.00" end="10800.00" personsPerHour="240" departPos="25">
        <personTrip from="32083309#6" to="323641561#0"/>
    </personFlow>
    <personFlow id="JollibeetoPureGold_2" type="ped" begin="1800.00" end="10800.00" personsPerHour="240" departPos="25">
        <personTrip from="32083309#6" to="777622118"/>
    </personFlow>
    <personFlow id="PalengketoJollibee_2" type="ped" begin="1800.00" end="10800.00" personsPerHour="240" departPos="25">
        <personTrip from="32083256" to="32083309#6"/>
    </personFlow>
    <personFlow id="PalengketoSTI_2" type="ped" begin="1800.00" end="10800.00" personsPerHour="240" departPos="25">
        <personTrip from="32083309#6" to="1287979763"/>
    </personFlow>
    <personFlow id="PalengketoTarget_2" type="ped" begin="1800.00" end="10800.00" personsPerHour="240" departPos="25">
        <personTrip from="32083309#6" to="323641561#0"/>
    </personFlow>
    <personFlow id="PalengketoPuregold_2" type="ped" begin="1800.00" end="10800.00" personsPerHour="240" departPos="25">
        <personTrip from="32083309#6" to="777622118"/>
    </personFlow>
    <personFlow id="STItoSakayan_2" type="ped" begin="1800.00" end="10800.00" personsPerHour="240" departPos="25">
        <personTrip from="1287979763" to="32083256"/>
    </personFlow>
    <personFlow id="TargettoSakayan_2" type="ped" begin="1800.00" end="10800.00" personsPerHour="240" departPos="25">
        <personTrip from="323641561#0" to="32083256"/>
    </personFlow>
    <personFlow id="PuregoldtoSakayan_2" type="ped" begin="1800.00" end="10800.00" personsPerHour="240" departPos="25">
        <personTrip from="777622118" to="32083256"/>
    </personFlow>

    <!-- Vehicles - JAM (0.0480) -->
    <flow id="BiñantoBalibago_2" type="PublicTranspo" begin="1800.00" end="10800.00" from="553887793#0" to="-32083237#0" via="39469992#3" probability="0.0480" departLane="best" departSpeed="max"/>
    <flow id="BiñantoNuvali_2" type="AguinaldoHighway" begin="1800.00" end="10800.00" from="553887793#0" to="145507700#3" probability="0.0480" departLane="best" departSpeed="max"/>
    <flow id="BiñantoCalamba_2" type="AguinaldoHighway" begin="1800.00" end="10800.00" from="553887793#0" to="-185930141#0" probability="0.0480" departLane="best" departSpeed="max"/>
    <flow id="BiñantoStaRosa_2" type="AguinaldoHighway" begin="1800.00" end="10800.00" from="553887793#0" to="-92878383#0" probability="0.0480" departLane="best" departSpeed="max"/>
    <flow id="BalibagotoBiñan_2" type="PublicTranspo" begin="1800.00" end="10800.00" from="145507698" to="-553887793#0" via="777619922#1 89908334 32083216#2 1081562671" probability="0.0480" departLane="best" departSpeed="max"/>
    <flow id="BalibagotoStaRosa_2" type="PublicTranspo" begin="1800.00" end="10800.00" from="145507698" to="-92878383#0" via="777619922#1 89908334 32083216#2 1081562671" probability="0.0480" departLane="best" departSpeed="max"/>
    <flow id="BalibagotoCalamba_2" type="PublicTranspo" begin="1800.00" end="10800.00" from="145507698" to="-185930141#0" via="777619922#1 89908334 32083216#2 -186159871#1" probability="0.0480" departLane="best" departSpeed="max"/>
    <flow id="BalibagotoNuvali_2" type="PublicTranspo" begin="1800.00" end="10800.00" from="777619905" to="145507700#3" via="145507698" probability="0.0480" departLane="best" departSpeed="max"/>
    <flow id="StaRosatoCalamba_2" type="AguinaldoHighway" begin="1800.00" end="10800.00" from="92878383#0" to="-185930141#0" probability="0.0480" departLane="best" departSpeed="max"/>
    <flow id="StaRosatoBalibago_2" type="PublicTranspo" begin="1800.00" end="10800.00" from="92878383#0" to="-32083237#0" via="39469992#3" probability="0.0480" departLane="best" departSpeed="max"/>
    <flow id="StaRosatoBiñan_2" type="AguinaldoHighway" begin="1800.00" end="10800.00" from="92878383#0" to="-553887793#0" probability="0.0480" departLane="best" departSpeed="max"/>
    <flow id="StaRosatoNuvali_2" type="AguinaldoHighway" begin="1800.00" end="10800.00" from="92878383#0" to="145507700#3" probability="0.0480" departLane="best" departSpeed="max"/>
    <flow id="NuvalitoBalibago_2" type="PublicTranspo" begin="1800.00" end="10800.00" from="-145507700#3" to="32083201#1" via="145507703 32082965 32083262" probability="0.0480" departLane="best" departSpeed="max"/>
    <flow id="NuvalitoBiñan_2" type="AguinaldoHighway" begin="1800.00" end="10800.00" from="-145507700#3" to="-553887793#0" probability="0.0480" departLane="best" departSpeed="max"/>
    <flow id="NuvalitoStaRosa_2" type="AguinaldoHighway" begin="1800.00" end="10800.00" from="-145507700#3" to="-92878383#0" via="-1413610384" probability="0.0480" departLane="best" departSpeed="max"/>
    <flow id="NuvalitoCalamba_2" type="AguinaldoHighway" begin="1800.00" end="10800.00" from="-145507700#3" to="-185930141#0" probability="0.0480" departLane="best" departSpeed="max"/>
    <flow id="CalambatoBalibago_2" type="PublicTranspo" begin="1800.00" end="10800.00" from="185930141#0" to="89908334" via="185601451#0" probability="0.0480" departLane="best" departSpeed="max"/>
    <flow id="CalambatoStaRosa_2" type="AguinaldoHighway" begin="1800.00" end="10800.00" from="185930141#0" to="-92878383#0" probability="0.0480" departLane="best" departSpeed="max"/>
    <flow id="CalambatoNuvali_2" type="AguinaldoHighway" begin="1800.00" end="10800.00" from="185930141#0" to="145507700#3" probability="0.0480" departLane="best" departSpeed="max"/>
    <flow id="CalambatoBiñan_2" type="AguinaldoHighway" begin="1800.00" end="10800.00" from="185930141#0" to="-553887793#0" probability="0.0480" departLane="best" departSpeed="max"/>

    <!-- ============================================ -->
    <!-- 9:00 - 10:00 MODERATE (10800-14400s)        -->
    <!-- probability = 0.0320 (Slow)                 -->
    <!-- ============================================ -->

    <!-- Pedestrians - SLOW (160/hr) -->
    <personFlow id="JollibeetoPalengke_3" type="ped" begin="10800.00" end="14400.00" personsPerHour="160" departPos="25">
        <personTrip from="32083309#6" to="32083256"/>
    </personFlow>
    <personFlow id="JollibeetoSTI_3" type="ped" begin="10800.00" end="14400.00" personsPerHour="160" departPos="25">
        <personTrip from="32083309#6" to="1287979763"/>
    </personFlow>
    <personFlow id="JollibeetoTarget_3" type="ped" begin="10800.00" end="14400.00" personsPerHour="160" departPos="25">
        <personTrip from="32083309#6" to="323641561#0"/>
    </personFlow>
    <personFlow id="JollibeetoPureGold_3" type="ped" begin="10800.00" end="14400.00" personsPerHour="160" departPos="25">
        <personTrip from="32083309#6" to="777622118"/>
    </personFlow>
    <personFlow id="PalengketoJollibee_3" type="ped" begin="10800.00" end="14400.00" personsPerHour="160" departPos="25">
        <personTrip from="32083256" to="32083309#6"/>
    </personFlow>
    <personFlow id="PalengketoSTI_3" type="ped" begin="10800.00" end="14400.00" personsPerHour="160" departPos="25">
        <personTrip from="32083309#6" to="1287979763"/>
    </personFlow>
    <personFlow id="PalengketoTarget_3" type="ped" begin="10800.00" end="14400.00" personsPerHour="160" departPos="25">
        <personTrip from="32083309#6" to="323641561#0"/>
    </personFlow>
    <personFlow id="PalengketoPuregold_3" type="ped" begin="10800.00" end="14400.00" personsPerHour="160" departPos="25">
        <personTrip from="32083309#6" to="777622118"/>
    </personFlow>
    <personFlow id="STItoSakayan_3" type="ped" begin="10800.00" end="14400.00" personsPerHour="160" departPos="25">
        <personTrip from="1287979763" to="32083256"/>
    </personFlow>
    <personFlow id="TargettoSakayan_3" type="ped" begin="10800.00" end="14400.00" personsPerHour="160" departPos="25">
        <personTrip from="323641561#0" to="32083256"/>
    </personFlow>
    <personFlow id="PuregoldtoSakayan_3" type="ped" begin="10800.00" end="14400.00" personsPerHour="160" departPos="25">
        <personTrip from="777622118" to="32083256"/>
    </personFlow>

    <!-- Vehicles - SLOW (0.0320) -->
    <flow id="BiñantoBalibago_3" type="PublicTranspo" begin="10800.00" end="14400.00" from="553887793#0" to="-32083237#0" via="39469992#3" probability="0.0320" departLane="best" departSpeed="max"/>
    <flow id="BiñantoNuvali_3" type="AguinaldoHighway" begin="10800.00" end="14400.00" from="553887793#0" to="145507700#3" probability="0.0320" departLane="best" departSpeed="max"/>
    <flow id="BiñantoCalamba_3" type="AguinaldoHighway" begin="10800.00" end="14400.00" from="553887793#0" to="-185930141#0" probability="0.0320" departLane="best" departSpeed="max"/>
    <flow id="BiñantoStaRosa_3" type="AguinaldoHighway" begin="10800.00" end="14400.00" from="553887793#0" to="-92878383#0" probability="0.0320" departLane="best" departSpeed="max"/>
    <flow id="BalibagotoBiñan_3" type="PublicTranspo" begin="10800.00" end="14400.00" from="145507698" to="-553887793#0" via="777619922#1 89908334 32083216#2 1081562671" probability="0.0320" departLane="best" departSpeed="max"/>
    <flow id="BalibagotoStaRosa_3" type="PublicTranspo" begin="10800.00" end="14400.00" from="145507698" to="-92878383#0" via="777619922#1 89908334 32083216#2 1081562671" probability="0.0320" departLane="best" departSpeed="max"/>
    <flow id="BalibagotoCalamba_3" type="PublicTranspo" begin="10800.00" end="14400.00" from="145507698" to="-185930141#0" via="777619922#1 89908334 32083216#2 -186159871#1" probability="0.0320" departLane="best" departSpeed="max"/>
    <flow id="BalibagotoNuvali_3" type="PublicTranspo" begin="10800.00" end="14400.00" from="777619905" to="145507700#3" via="145507698" probability="0.0320" departLane="best" departSpeed="max"/>
    <flow id="StaRosatoCalamba_3" type="AguinaldoHighway" begin="10800.00" end="14400.00" from="92878383#0" to="-185930141#0" probability="0.0320" departLane="best" departSpeed="max"/>
    <flow id="StaRosatoBalibago_3" type="PublicTranspo" begin="10800.00" end="14400.00" from="92878383#0" to="-32083237#0" via="39469992#3" probability="0.0320" departLane="best" departSpeed="max"/>
    <flow id="StaRosatoBiñan_3" type="AguinaldoHighway" begin="10800.00" end="14400.00" from="92878383#0" to="-553887793#0" probability="0.0320" departLane="best" departSpeed="max"/>
    <flow id="StaRosatoNuvali_3" type="AguinaldoHighway" begin="10800.00" end="14400.00" from="92878383#0" to="145507700#3" probability="0.0320" departLane="best" departSpeed="max"/>
    <flow id="NuvalitoBalibago_3" type="PublicTranspo" begin="10800.00" end="14400.00" from="-145507700#3" to="32083201#1" via="145507703 32082965 32083262" probability="0.0320" departLane="best" departSpeed="max"/>
    <flow id="NuvalitoBiñan_3" type="AguinaldoHighway" begin="10800.00" end="14400.00" from="-145507700#3" to="-553887793#0" probability="0.0320" departLane="best" departSpeed="max"/>
    <flow id="NuvalitoStaRosa_3" type="AguinaldoHighway" begin="10800.00" end="14400.00" from="-145507700#3" to="-92878383#0" via="-1413610384" probability="0.0320" departLane="best" departSpeed="max"/>
    <flow id="NuvalitoCalamba_3" type="AguinaldoHighway" begin="10800.00" end="14400.00" from="-145507700#3" to="-185930141#0" probability="0.0320" departLane="best" departSpeed="max"/>
    <flow id="CalambatoBalibago_3" type="PublicTranspo" begin="10800.00" end="14400.00" from="185930141#0" to="89908334" via="185601451#0" probability="0.0320" departLane="best" departSpeed="max"/>
    <flow id="CalambatoStaRosa_3" type="AguinaldoHighway" begin="10800.00" end="14400.00" from="185930141#0" to="-92878383#0" probability="0.0320" departLane="best" departSpeed="max"/>
    <flow id="CalambatoNuvali_3" type="AguinaldoHighway" begin="10800.00" end="14400.00" from="185930141#0" to="145507700#3" probability="0.0320" departLane="best" departSpeed="max"/>
    <flow id="CalambatoBiñan_3" type="AguinaldoHighway" begin="10800.00" end="14400.00" from="185930141#0" to="-553887793#0" probability="0.0320" departLane="best" departSpeed="max"/>

    <!-- ============================================ -->
    <!-- 10:00 - 4:00 LIGHT/NORMAL (14400-36000s)    -->
    <!-- probability = 0.0142 (Normal)               -->
    <!-- ============================================ -->

    <!-- Pedestrians - NORMAL (80/hr) -->
    <personFlow id="JollibeetoPalengke_4" type="ped" begin="14400.00" end="36000.00" personsPerHour="80" departPos="25">
        <personTrip from="32083309#6" to="32083256"/>
    </personFlow>
    <personFlow id="JollibeetoSTI_4" type="ped" begin="14400.00" end="36000.00" personsPerHour="80" departPos="25">
        <personTrip from="32083309#6" to="1287979763"/>
    </personFlow>
    <personFlow id="JollibeetoTarget_4" type="ped" begin="14400.00" end="36000.00" personsPerHour="80" departPos="25">
        <personTrip from="32083309#6" to="323641561#0"/>
    </personFlow>
    <personFlow id="JollibeetoPureGold_4" type="ped" begin="14400.00" end="36000.00" personsPerHour="80" departPos="25">
        <personTrip from="32083309#6" to="777622118"/>
    </personFlow>
    <personFlow id="PalengketoJollibee_4" type="ped" begin="14400.00" end="36000.00" personsPerHour="80" departPos="25">
        <personTrip from="32083256" to="32083309#6"/>
    </personFlow>
    <personFlow id="PalengketoSTI_4" type="ped" begin="14400.00" end="36000.00" personsPerHour="80" departPos="25">
        <personTrip from="32083309#6" to="1287979763"/>
    </personFlow>
    <personFlow id="PalengketoTarget_4" type="ped" begin="14400.00" end="36000.00" personsPerHour="80" departPos="25">
        <personTrip from="32083309#6" to="323641561#0"/>
    </personFlow>
    <personFlow id="PalengketoPuregold_4" type="ped" begin="14400.00" end="36000.00" personsPerHour="80" departPos="25">
        <personTrip from="32083309#6" to="777622118"/>
    </personFlow>
    <personFlow id="STItoSakayan_4" type="ped" begin="14400.00" end="36000.00" personsPerHour="80" departPos="25">
        <personTrip from="1287979763" to="32083256"/>
    </personFlow>
    <personFlow id="TargettoSakayan_4" type="ped" begin="14400.00" end="36000.00" personsPerHour="80" departPos="25">
        <personTrip from="323641561#0" to="32083256"/>
    </personFlow>
    <personFlow id="PuregoldtoSakayan_4" type="ped" begin="14400.00" end="36000.00" personsPerHour="80" departPos="25">
        <personTrip from="777622118" to="32083256"/>
    </personFlow>

    <!-- Vehicles - NORMAL (0.0142) -->
    <flow id="BiñantoBalibago_4" type="PublicTranspo" begin="14400.00" end="36000.00" from="553887793#0" to="-32083237#0" via="39469992#3" probability="0.0142" departLane="best" departSpeed="max"/>
    <flow id="BiñantoNuvali_4" type="AguinaldoHighway" begin="14400.00" end="36000.00" from="553887793#0" to="145507700#3" probability="0.0142" departLane="best" departSpeed="max"/>
    <flow id="BiñantoCalamba_4" type="AguinaldoHighway" begin="14400.00" end="36000.00" from="553887793#0" to="-185930141#0" probability="0.0142" departLane="best" departSpeed="max"/>
    <flow id="BiñantoStaRosa_4" type="AguinaldoHighway" begin="14400.00" end="36000.00" from="553887793#0" to="-92878383#0" probability="0.0142" departLane="best" departSpeed="max"/>
    <flow id="BalibagotoBiñan_4" type="PublicTranspo" begin="14400.00" end="36000.00" from="145507698" to="-553887793#0" via="777619922#1 89908334 32083216#2 1081562671" probability="0.0142" departLane="best" departSpeed="max"/>
    <flow id="BalibagotoStaRosa_4" type="PublicTranspo" begin="14400.00" end="36000.00" from="145507698" to="-92878383#0" via="777619922#1 89908334 32083216#2 1081562671" probability="0.0142" departLane="best" departSpeed="max"/>
    <flow id="BalibagotoCalamba_4" type="PublicTranspo" begin="14400.00" end="36000.00" from="145507698" to="-185930141#0" via="777619922#1 89908334 32083216#2 -186159871#1" probability="0.0142" departLane="best" departSpeed="max"/>
    <flow id="BalibagotoNuvali_4" type="PublicTranspo" begin="14400.00" end="36000.00" from="777619905" to="145507700#3" via="145507698" probability="0.0142" departLane="best" departSpeed="max"/>
    <flow id="StaRosatoCalamba_4" type="AguinaldoHighway" begin="14400.00" end="36000.00" from="92878383#0" to="-185930141#0" probability="0.0142" departLane="best" departSpeed="max"/>
    <flow id="StaRosatoBalibago_4" type="PublicTranspo" begin="14400.00" end="36000.00" from="92878383#0" to="-32083237#0" via="39469992#3" probability="0.0142" departLane="best" departSpeed="max"/>
    <flow id="StaRosatoBiñan_4" type="AguinaldoHighway" begin="14400.00" end="36000.00" from="92878383#0" to="-553887793#0" probability="0.0142" departLane="best" departSpeed="max"/>
    <flow id="StaRosatoNuvali_4" type="AguinaldoHighway" begin="14400.00" end="36000.00" from="92878383#0" to="145507700#3" probability="0.0142" departLane="best" departSpeed="max"/>
    <flow id="NuvalitoBalibago_4" type="PublicTranspo" begin="14400.00" end="36000.00" from="-145507700#3" to="32083201#1" via="145507703 32082965 32083262" probability="0.0142" departLane="best" departSpeed="max"/>
    <flow id="NuvalitoBiñan_4" type="AguinaldoHighway" begin="14400.00" end="36000.00" from="-145507700#3" to="-553887793#0" probability="0.0142" departLane="best" departSpeed="max"/>
    <flow id="NuvalitoStaRosa_4" type="AguinaldoHighway" begin="14400.00" end="36000.00" from="-145507700#3" to="-92878383#0" via="-1413610384" probability="0.0142" departLane="best" departSpeed="max"/>
    <flow id="NuvalitoCalamba_4" type="AguinaldoHighway" begin="14400.00" end="36000.00" from="-145507700#3" to="-185930141#0" probability="0.0142" departLane="best" departSpeed="max"/>
    <flow id="CalambatoBalibago_4" type="PublicTranspo" begin="14400.00" end="36000.00" from="185930141#0" to="89908334" via="185601451#0" probability="0.0142" departLane="best" departSpeed="max"/>
    <flow id="CalambatoStaRosa_4" type="AguinaldoHighway" begin="14400.00" end="36000.00" from="185930141#0" to="-92878383#0" probability="0.0142" departLane="best" departSpeed="max"/>
    <flow id="CalambatoNuvali_4" type="AguinaldoHighway" begin="14400.00" end="36000.00" from="185930141#0" to="145507700#3" probability="0.0142" departLane="best" departSpeed="max"/>
    <flow id="CalambatoBiñan_4" type="AguinaldoHighway" begin="14400.00" end="36000.00" from="185930141#0" to="-553887793#0" probability="0.0142" departLane="best" departSpeed="max"/>

    <!-- ============================================ -->
    <!-- 4:00 - 5:00 MODERATE/SLOW (36000-39600s)    -->
    <!-- probability = 0.0320 (Slow)                 -->
    <!-- ============================================ -->

    <!-- Pedestrians - SLOW (160/hr) -->
    <personFlow id="JollibeetoPalengke_5" type="ped" begin="36000.00" end="39600.00" personsPerHour="160" departPos="25">
        <personTrip from="32083309#6" to="32083256"/>
    </personFlow>
    <personFlow id="JollibeetoSTI_5" type="ped" begin="36000.00" end="39600.00" personsPerHour="160" departPos="25">
        <personTrip from="32083309#6" to="1287979763"/>
    </personFlow>
    <personFlow id="JollibeetoTarget_5" type="ped" begin="36000.00" end="39600.00" personsPerHour="160" departPos="25">
        <personTrip from="32083309#6" to="323641561#0"/>
    </personFlow>
    <personFlow id="JollibeetoPureGold_5" type="ped" begin="36000.00" end="39600.00" personsPerHour="160" departPos="25">
        <personTrip from="32083309#6" to="777622118"/>
    </personFlow>
    <personFlow id="PalengketoJollibee_5" type="ped" begin="36000.00" end="39600.00" personsPerHour="160" departPos="25">
        <personTrip from="32083256" to="32083309#6"/>
    </personFlow>
    <personFlow id="PalengketoSTI_5" type="ped" begin="36000.00" end="39600.00" personsPerHour="160" departPos="25">
        <personTrip from="32083309#6" to="1287979763"/>
    </personFlow>
    <personFlow id="PalengketoTarget_5" type="ped" begin="36000.00" end="39600.00" personsPerHour="160" departPos="25">
        <personTrip from="32083309#6" to="323641561#0"/>
    </personFlow>
    <personFlow id="PalengketoPuregold_5" type="ped" begin="36000.00" end="39600.00" personsPerHour="160" departPos="25">
        <personTrip from="32083309#6" to="777622118"/>
    </personFlow>
    <personFlow id="STItoSakayan_5" type="ped" begin="36000.00" end="39600.00" personsPerHour="160" departPos="25">
        <personTrip from="1287979763" to="32083256"/>
    </personFlow>
    <personFlow id="TargettoSakayan_5" type="ped" begin="36000.00" end="39600.00" personsPerHour="160" departPos="25">
        <personTrip from="323641561#0" to="32083256"/>
    </personFlow>
    <personFlow id="PuregoldtoSakayan_5" type="ped" begin="36000.00" end="39600.00" personsPerHour="160" departPos="25">
        <personTrip from="777622118" to="32083256"/>
    </personFlow>

    <!-- Vehicles - SLOW (0.0320) -->
    <flow id="BiñantoBalibago_5" type="PublicTranspo" begin="36000.00" end="39600.00" from="553887793#0" to="-32083237#0" via="39469992#3" probability="0.0320" departLane="best" departSpeed="max"/>
    <flow id="BiñantoNuvali_5" type="AguinaldoHighway" begin="36000.00" end="39600.00" from="553887793#0" to="145507700#3" probability="0.0320" departLane="best" departSpeed="max"/>
    <flow id="BiñantoCalamba_5" type="AguinaldoHighway" begin="36000.00" end="39600.00" from="553887793#0" to="-185930141#0" probability="0.0320" departLane="best" departSpeed="max"/>
    <flow id="BiñantoStaRosa_5" type="AguinaldoHighway" begin="36000.00" end="39600.00" from="553887793#0" to="-92878383#0" probability="0.0320" departLane="best" departSpeed="max"/>
    <flow id="BalibagotoBiñan_5" type="PublicTranspo" begin="36000.00" end="39600.00" from="145507698" to="-553887793#0" via="777619922#1 89908334 32083216#2 1081562671" probability="0.0320" departLane="best" departSpeed="max"/>