<?xml version="1.0" encoding="UTF-8"?>

<!-- generated on 2025-10-17 17:38:04 by Eclipse SUMO netedit Version 1.24.0
-->

<additional xmlns:xsi="http://www.w3.org/2001/XMLSchema-instance" xsi:noNamespaceSchemaLocation="http://sumo.dlr.de/xsd/additional_file.xsd">
    <!-- Detectors -->
    <laneAreaDetector id="e2_0" lane="-777627656_1" pos="0.00" length="100.00" period="300.00" file="e2_0.xml" friendlyPos="1"/>
    <laneAreaDetector id="e2_1" lane="-777627656_2" pos="0.00" length="100.00" period="300.00" file="e2_1.xml" friendlyPos="1"/>
    <laneAreaDetector id="e2_2" lane="777627649#1_1" pos="0.00" length="100.00" period="300.00" file="e2_2.xml" friendlyPos="1"/>
    <laneAreaDetector id="e2_3" lane="777627649#1_2" pos="0.00" length="100.00" period="300.00" file="e2_3.xml" friendlyPos="1"/>
    <laneAreaDetector id="e2_4" lane="140483224#12_1" pos="44.00" length="100.00" period="300.00" file="e2_4.xml" friendlyPos="1"/>
    <laneAreaDetector id="e2_5" lane="140483224#12_2" pos="44.00" length="100.00" period="300.00" file="e2_5.xml" friendlyPos="1"/>
    <laneAreaDetector id="e2_6" lane="-361256298#0_2" pos="31.00" length="100.00" period="300.00" file="e2_6.xml" friendlyPos="1"/>
    <laneAreaDetector id="e2_7" lane="-361256298#0_1" pos="31.00" length="100.00" period="300.00" file="e2_7.xml" friendlyPos="1"/>
    <laneAreaDetector id="e2_8" lane="-939610874_1" pos="26.00" length="100.00" period="300.00" file="e2_8.xml" friendlyPos="1"/>
    <laneAreaDetector id="e2_9" lane="440471861#6_1" pos="93.00" length="100.00" period="300.00" file="e2_9.xml" friendlyPos="1"/>
    <laneAreaDetector id="e2_10" lane="440471861#6_2" pos="93.00" length="100.00" period="300.00" file="e2_10.xml" friendlyPos="1"/>
</additional>
