<routes>
    <vType id="car" vClass="passenger" guiShape="passenger"/>
    <vType id="truck" vClass="truck" guiShape="truck"/>
    <vType id="ped" vClass="pedestrian" impatience="0.2" mDriveAfterRedTime="-1" guiShape="pedestrian"/>
    <vType id="jeepney" vClass="bus" guiShape="bus"/>

    
    <personFlow id="pf_0" type="ped" begin="0.00" end="3600.00" personsPerHour="1800" departPos="25">
        <personTrip from="-440471861#7" to="1119486610#0"/>
        <personTrip from="-440471861#7" via="-440471861#8" to="1119486610#0"/>
        <personTrip from="-440471861#7" to="1119486605"/>
    </personFlow>

    <flow id="car1" type="car" begin="0.00" end="3600.00" number="600" from="440471861#6" to="-1119486610#0" departLane="best" departSpeed="max"/>
    <flow id="car2" type="car" begin="0.00" end="3600.00" number="600" from="1119486610#0" to="440471861#6" departLane="best" departSpeed="max"/>

</routes>