<?xml version="1.0" encoding="UTF-8"?>
<routes xmlns:xsi="http://www.w3.org/2001/XMLSchema-instance" xsi:noNamespaceSchemaLocation="http://sumo.dlr.de/xsd/routes_file.xsd">

    <flow id="flow_0" from="140483178#4" to="-140483178#3" begin="0" end="1000" vehsPerHour="50" departLane="best" departSpeed="max" />
    <flow id="flow_19" from="-140483178#4" to="-361256298#2" begin="0" end="1000" vehsPerHour="50" departLane="best" departSpeed="max" />
    <flow id="flow_38" from="140483178#4" to="32083693#1" begin="0" end="1000" vehsPerHour="50" departLane="best" departSpeed="max" />
    <flow id="flow_57" from="1120222500" to="140483224#12" begin="0" end="1000" vehsPerHour="50" departLane="best" departSpeed="max" />
    <flow id="flow_76" from="1120222500" to="-361256298#2" begin="0" end="1000" vehsPerHour="50" departLane="best" departSpeed="max" />
    <flow id="flow_95" from="1120222500" to="361260925#2" begin="0" end="1000" vehsPerHour="50" departLane="best" departSpeed="max" />
    <flow id="flow_114" from="-140483178#4" to="-140483178#4" begin="0" end="1000" vehsPerHour="50" departLane="best" departSpeed="max" />
    <flow id="flow_133" from="-140483178#3" to="-140483178#3" begin="0" end="1000" vehsPerHour="50" departLane="best" departSpeed="max" />
    <flow id="flow_152" from="140483178#3" to="140483178#1" begin="0" end="1000" vehsPerHour="50" departLane="best" departSpeed="max" />
    <flow id="flow_171" from="-140483178#4" to="-114920907#1" begin="0" end="1000" vehsPerHour="50" departLane="best" departSpeed="max" />
    <flow id="flow_190" from="140483178#3" to="93590611#1" begin="0" end="1000" vehsPerHour="50" departLane="best" departSpeed="max" />
    <flow id="flow_209" from="140483178#4" to="114920912" begin="0" end="1000" vehsPerHour="50" departLane="best" departSpeed="max" />
    <flow id="flow_228" from="-140483178#4" to="140483224#8" begin="0" end="1000" vehsPerHour="50" departLane="best" departSpeed="max" />
    <flow id="flow_247" from="140483178#3" to="-361256298#0" begin="0" end="1000" vehsPerHour="50" departLane="best" departSpeed="max" />
    <flow id="flow_266" from="140483178#3" to="-140483178#3" begin="0" end="1000" vehsPerHour="50" departLane="best" departSpeed="max" />
    <flow id="flow_285" from="-140483178#3" to="-361256298#1" begin="0" end="1000" vehsPerHour="50" departLane="best" departSpeed="max" />
    <flow id="flow_304" from="140483178#4" to="-123172358" begin="0" end="1000" vehsPerHour="50" departLane="best" departSpeed="max" />
    <flow id="flow_323" from="1120222500" to="361257726" begin="0" end="1000" vehsPerHour="50" departLane="best" departSpeed="max" />
    <flow id="flow_342" from="140483178#3" to="-140483254#0" begin="0" end="1000" vehsPerHour="50" departLane="best" departSpeed="max" />
    <flow id="flow_361" from="140483178#4" to="-93590599#0" begin="0" end="1000" vehsPerHour="50" departLane="best" departSpeed="max" />
    <flow id="flow_380" from="140483178#3" to="140483224#1" begin="0" end="1000" vehsPerHour="50" departLane="best" departSpeed="max" />
    <flow id="flow_399" from="-140483178#4" to="-140483178#4" begin="0" end="1000" vehsPerHour="50" departLane="best" departSpeed="max" />
    <flow id="flow_418" from="-140483178#4" to="1120222500" begin="0" end="1000" vehsPerHour="50" departLane="best" departSpeed="max" />
    <flow id="flow_437" from="1120222500" to="-140483178#3" begin="0" end="1000" vehsPerHour="50" departLane="best" departSpeed="max" />
    <flow id="flow_456" from="1120222500" to="140483211" begin="0" end="1000" vehsPerHour="50" departLane="best" departSpeed="max" />
    <flow id="flow_475" from="-140483178#3" to="140483178#4" begin="0" end="1000" vehsPerHour="50" departLane="best" departSpeed="max" />
    <flow id="flow_494" from="-119709657" to="361256298#2" begin="0" end="1000" vehsPerHour="50" departLane="best" departSpeed="max" />
    <flow id="flow_513" from="-140483178#3" to="123172358" begin="0" end="1000" vehsPerHour="50" departLane="best" departSpeed="max" />
    <flow id="flow_532" from="140483178#2" to="140483224#12" begin="0" end="1000" vehsPerHour="50" departLane="best" departSpeed="max" />
    <flow id="flow_551" from="140483178#3" to="-140483211" begin="0" end="1000" vehsPerHour="50" departLane="best" departSpeed="max" />
    <flow id="flow_570" from="-140483178#3" to="361260925#2" begin="0" end="1000" vehsPerHour="50" departLane="best" departSpeed="max" />
    <flow id="flow_589" from="140483178#3" to="140483178#3" begin="0" end="1000" vehsPerHour="50" departLane="best" departSpeed="max" />
    <flow id="flow_608" from="-119709657" to="140483178#3" begin="0" end="1000" vehsPerHour="50" departLane="best" departSpeed="max" />
    <flow id="flow_627" from="-140483178#3" to="140483178#1" begin="0" end="1000" vehsPerHour="50" departLane="best" departSpeed="max" />
    <flow id="flow_646" from="-140483178#2" to="114920907#1" begin="0" end="1000" vehsPerHour="50" departLane="best" departSpeed="max" />
    <flow id="flow_665" from="-119709657" to="-93590611#1" begin="0" end="1000" vehsPerHour="50" departLane="best" departSpeed="max" />
    <flow id="flow_684" from="140483178#3" to="361256298#2" begin="0" end="1000" vehsPerHour="50" departLane="best" departSpeed="max" />
    <flow id="flow_703" from="-140483178#3" to="-119709657" begin="0" end="1000" vehsPerHour="50" departLane="best" departSpeed="max" />
    <flow id="flow_722" from="-119709657" to="-361256298#0" begin="0" end="1000" vehsPerHour="50" departLane="best" departSpeed="max" />
    <flow id="flow_741" from="-119709657" to="-140483178#4" begin="0" end="1000" vehsPerHour="50" departLane="best" departSpeed="max" />
    <flow id="flow_760" from="-119709657" to="361256298#1" begin="0" end="1000" vehsPerHour="50" departLane="best" departSpeed="max" />
    <flow id="flow_779" from="-140483178#3" to="-793339796#2" begin="0" end="1000" vehsPerHour="50" departLane="best" departSpeed="max" />
    <flow id="flow_798" from="-140483178#3" to="361256298#1" begin="0" end="1000" vehsPerHour="50" departLane="best" departSpeed="max" />
    <flow id="flow_817" from="140483178#2" to="-140483254#0" begin="0" end="1000" vehsPerHour="50" departLane="best" departSpeed="max" />
    <flow id="flow_836" from="-119709657" to="-93590599#0" begin="0" end="1000" vehsPerHour="50" departLane="best" departSpeed="max" />
    <flow id="flow_855" from="-119709657" to="-667982626" begin="0" end="1000" vehsPerHour="50" departLane="best" departSpeed="max" />
    <flow id="flow_874" from="-140483178#3" to="140483178#3" begin="0" end="1000" vehsPerHour="50" departLane="best" departSpeed="max" />
    <flow id="flow_893" from="-140483178#2" to="-140483178#3" begin="0" end="1000" vehsPerHour="50" departLane="best" departSpeed="max" />
    <flow id="flow_912" from="-140483178#3" to="140483178#3" begin="0" end="1000" vehsPerHour="50" departLane="best" departSpeed="max" />
    <flow id="flow_931" from="-119709657" to="140483211" begin="0" end="1000" vehsPerHour="50" departLane="best" departSpeed="max" />
    <flow id="flow_950" from="140483178#5" to="140483178#3" begin="0" end="1000" vehsPerHour="50" departLane="best" departSpeed="max" />
    <flow id="flow_969" from="361256298#2" to="-140483178#3" begin="0" end="1000" vehsPerHour="50" departLane="best" departSpeed="max" />
    <flow id="flow_988" from="140483178#5" to="123172358" begin="0" end="1000" vehsPerHour="50" departLane="best" departSpeed="max" />
    <flow id="flow_1007" from="140483178#5" to="-140483224#11" begin="0" end="1000" vehsPerHour="50" departLane="best" departSpeed="max" />
    <flow id="flow_1026" from="361256298#3" to="140483249#1" begin="0" end="1000" vehsPerHour="50" departLane="best" departSpeed="max" />
    <flow id="flow_1045" from="361256298#2" to="361260925#2" begin="0" end="1000" vehsPerHour="50" departLane="best" departSpeed="max" />
    <flow id="flow_1064" from="361256298#2" to="-1120222500" begin="0" end="1000" vehsPerHour="50" departLane="best" departSpeed="max" />
    <flow id="flow_1083" from="-361256298#2" to="1120222500" begin="0" end="1000" vehsPerHour="50" departLane="best" departSpeed="max" />
    <flow id="flow_1102" from="-361256298#2" to="-140483178#2" begin="0" end="1000" vehsPerHour="50" departLane="best" departSpeed="max" />
    <flow id="flow_1121" from="-140483178#5" to="114920907#1" begin="0" end="1000" vehsPerHour="50" departLane="best" departSpeed="max" />
    <flow id="flow_1140" from="361256298#3" to="93590611#1" begin="0" end="1000" vehsPerHour="50" departLane="best" departSpeed="max" />
    <flow id="flow_1159" from="140483178#5" to="-361256298#1" begin="0" end="1000" vehsPerHour="50" departLane="best" departSpeed="max" />
    <flow id="flow_1178" from="361256298#2" to="140483224#6" begin="0" end="1000" vehsPerHour="50" departLane="best" departSpeed="max" />
    <flow id="flow_1197" from="361256298#2" to="-361256298#1" begin="0" end="1000" vehsPerHour="50" departLane="best" departSpeed="max" />
    <flow id="flow_1216" from="361256298#3" to="-1120222500" begin="0" end="1000" vehsPerHour="50" departLane="best" departSpeed="max" />
    <flow id="flow_1235" from="-361256298#2" to="-361256298#1" begin="0" end="1000" vehsPerHour="50" departLane="best" departSpeed="max" />
    <flow id="flow_1254" from="-140483178#5" to="123172358" begin="0" end="1000" vehsPerHour="50" departLane="best" departSpeed="max" />
    <flow id="flow_1273" from="361256298#2" to="361256298#0" begin="0" end="1000" vehsPerHour="50" departLane="best" departSpeed="max" />
    <flow id="flow_1292" from="-140483178#5" to="-140483254#0" begin="0" end="1000" vehsPerHour="50" departLane="best" departSpeed="max" />
    <flow id="flow_1311" from="-140483178#5" to="93590599#0" begin="0" end="1000" vehsPerHour="50" departLane="best" departSpeed="max" />
    <flow id="flow_1330" from="-140483178#5" to="-140483224#0" begin="0" end="1000" vehsPerHour="50" departLane="best" departSpeed="max" />
    <flow id="flow_1349" from="361256298#3" to="-140483178#4" begin="0" end="1000" vehsPerHour="50" departLane="best" departSpeed="max" />
    <flow id="flow_1368" from="140483178#5" to="119709657" begin="0" end="1000" vehsPerHour="50" departLane="best" departSpeed="max" />
    <flow id="flow_1387" from="361256298#3" to="-140483178#2" begin="0" end="1000" vehsPerHour="50" departLane="best" departSpeed="max" />
    <flow id="flow_1406" from="-140483178#5" to="140483211" begin="0" end="1000" vehsPerHour="50" departLane="best" departSpeed="max" />
    <flow id="flow_1425" from="123172358" to="140483178#4" begin="0" end="1000" vehsPerHour="50" departLane="best" departSpeed="max" />
    <flow id="flow_1444" from="-123172358" to="-140483178#3" begin="0" end="1000" vehsPerHour="50" departLane="best" departSpeed="max" />
    <flow id="flow_1463" from="-32083693#1" to="361256298#3" begin="0" end="1000" vehsPerHour="50" departLane="best" departSpeed="max" />
    <flow id="flow_1482" from="-123172358" to="-140483224#11" begin="0" end="1000" vehsPerHour="50" departLane="best" departSpeed="max" />
    <flow id="flow_1501" from="-32083693#1" to="140483249#1" begin="0" end="1000" vehsPerHour="50" departLane="best" departSpeed="max" />
    <flow id="flow_1520" from="-123172358" to="140483249#0" begin="0" end="1000" vehsPerHour="50" departLane="best" departSpeed="max" />
    <flow id="flow_1539" from="-123172358" to="-1120222500" begin="0" end="1000" vehsPerHour="50" departLane="best" departSpeed="max" />
    <flow id="flow_1558" from="-123172358" to="1120222500" begin="0" end="1000" vehsPerHour="50" departLane="best" departSpeed="max" />
    <flow id="flow_1577" from="-123172358" to="114920907#1" begin="0" end="1000" vehsPerHour="50" departLane="best" departSpeed="max" />
    <flow id="flow_1596" from="32083693#1" to="114920907#1" begin="0" end="1000" vehsPerHour="50" departLane="best" departSpeed="max" />
    <flow id="flow_1615" from="-123172358" to="93590611#1" begin="0" end="1000" vehsPerHour="50" departLane="best" departSpeed="max" />
    <flow id="flow_1634" from="32083693#1" to="-114920912" begin="0" end="1000" vehsPerHour="50" departLane="best" departSpeed="max" />
    <flow id="flow_1653" from="123172358" to="140483224#6" begin="0" end="1000" vehsPerHour="50" departLane="best" departSpeed="max" />
    <flow id="flow_1672" from="-32083693#2" to="-361256298#0" begin="0" end="1000" vehsPerHour="50" departLane="best" departSpeed="max" />
    <flow id="flow_1691" from="-32083693#2" to="-140483178#4" begin="0" end="1000" vehsPerHour="50" departLane="best" departSpeed="max" />
    <flow id="flow_1710" from="123172358" to="-361256298#2" begin="0" end="1000" vehsPerHour="50" departLane="best" departSpeed="max" />
    <flow id="flow_1729" from="32083693#1" to="-793339796#1" begin="0" end="1000" vehsPerHour="50" departLane="best" departSpeed="max" />
    <flow id="flow_1748" from="-32083693#1" to="-361256298#0" begin="0" end="1000" vehsPerHour="50" departLane="best" departSpeed="max" />
    <flow id="flow_1767" from="-123172358" to="-140483254#0" begin="0" end="1000" vehsPerHour="50" departLane="best" departSpeed="max" />
    <flow id="flow_1786" from="-123172358" to="93590599#0" begin="0" end="1000" vehsPerHour="50" departLane="best" departSpeed="max" />
    <flow id="flow_1805" from="123172358" to="140483224#1" begin="0" end="1000" vehsPerHour="50" departLane="best" departSpeed="max" />
    <flow id="flow_1824" from="-32083693#1" to="140483178#3" begin="0" end="1000" vehsPerHour="50" departLane="best" departSpeed="max" />
    <flow id="flow_1843" from="-32083693#1" to="119709657" begin="0" end="1000" vehsPerHour="50" departLane="best" departSpeed="max" />
    <flow id="flow_1862" from="123172358" to="119709657" begin="0" end="1000" vehsPerHour="50" departLane="best" departSpeed="max" />
    <flow id="flow_1881" from="-32083693#1" to="-361256298#2" begin="0" end="1000" vehsPerHour="50" departLane="best" departSpeed="max" />
    <flow id="flow_1900" from="-140483224#12" to="140483178#4" begin="0" end="1000" vehsPerHour="50" departLane="best" departSpeed="max" />
    <flow id="flow_1919" from="-140483224#12" to="-119709657" begin="0" end="1000" vehsPerHour="50" departLane="best" departSpeed="max" />
    <flow id="flow_1938" from="-140483224#12" to="-361256298#2" begin="0" end="1000" vehsPerHour="50" departLane="best" departSpeed="max" />
    <flow id="flow_1957" from="-140483224#11" to="-32083693#1" begin="0" end="1000" vehsPerHour="50" departLane="best" departSpeed="max" />
    <flow id="flow_1976" from="-140483224#11" to="140483249#1" begin="0" end="1000" vehsPerHour="50" departLane="best" departSpeed="max" />
    <flow id="flow_1995" from="-140483224#11" to="361260925#2" begin="0" end="1000" vehsPerHour="50" departLane="best" departSpeed="max" />
    <flow id="flow_2014" from="-140483224#12" to="-140483178#4" begin="0" end="1000" vehsPerHour="50" departLane="best" departSpeed="max" />
    <flow id="flow_2033" from="-140483224#11" to="140483178#3" begin="0" end="1000" vehsPerHour="50" departLane="best" departSpeed="max" />
    <flow id="flow_2052" from="-140483224#12" to="140483178#2" begin="0" end="1000" vehsPerHour="50" departLane="best" departSpeed="max" />
    <flow id="flow_2071" from="140483224#12" to="-114920907#1" begin="0" end="1000" vehsPerHour="50" departLane="best" departSpeed="max" />
    <flow id="flow_2090" from="-140483224#12" to="-93590611#1" begin="0" end="1000" vehsPerHour="50" departLane="best" departSpeed="max" />
    <flow id="flow_2109" from="-140483224#12" to="114920912" begin="0" end="1000" vehsPerHour="50" departLane="best" departSpeed="max" />
    <flow id="flow_2128" from="-140483224#12" to="140483224#6" begin="0" end="1000" vehsPerHour="50" departLane="best" departSpeed="max" />
    <flow id="flow_2147" from="140483224#12" to="361257726" begin="0" end="1000" vehsPerHour="50" departLane="best" departSpeed="max" />
    <flow id="flow_2166" from="-140483224#11" to="-140483178#4" begin="0" end="1000" vehsPerHour="50" departLane="best" departSpeed="max" />
    <flow id="flow_2185" from="-140483224#12" to="-361256298#2" begin="0" end="1000" vehsPerHour="50" departLane="best" departSpeed="max" />
    <flow id="flow_2204" from="-140483224#11" to="123172358" begin="0" end="1000" vehsPerHour="50" departLane="best" departSpeed="max" />
    <flow id="flow_2223" from="140483224#12" to="-361256298#1" begin="0" end="1000" vehsPerHour="50" departLane="best" departSpeed="max" />
    <flow id="flow_2242" from="140483224#12" to="-140483254#0" begin="0" end="1000" vehsPerHour="50" departLane="best" departSpeed="max" />
    <flow id="flow_2261" from="-140483224#12" to="93590599#0" begin="0" end="1000" vehsPerHour="50" departLane="best" departSpeed="max" />
    <flow id="flow_2280" from="-140483224#12" to="-140483224#0" begin="0" end="1000" vehsPerHour="50" departLane="best" departSpeed="max" />
    <flow id="flow_2299" from="-140483224#12" to="-140483178#3" begin="0" end="1000" vehsPerHour="50" departLane="best" departSpeed="max" />
    <flow id="flow_2318" from="-140483224#11" to="119709657" begin="0" end="1000" vehsPerHour="50" departLane="best" departSpeed="max" />
    <flow id="flow_2337" from="-140483224#12" to="-119709657" begin="0" end="1000" vehsPerHour="50" departLane="best" departSpeed="max" />
    <flow id="flow_2356" from="-140483224#11" to="-140483211" begin="0" end="1000" vehsPerHour="50" departLane="best" departSpeed="max" />
    <flow id="flow_2375" from="140483211" to="140483178#4" begin="0" end="1000" vehsPerHour="50" departLane="best" departSpeed="max" />
    <flow id="flow_2394" from="140483211" to="140483178#3" begin="0" end="1000" vehsPerHour="50" departLane="best" departSpeed="max" />
    <flow id="flow_2413" from="-140483211" to="-361256298#2" begin="0" end="1000" vehsPerHour="50" departLane="best" departSpeed="max" />
    <flow id="flow_2432" from="361256298#2" to="-123172358" begin="0" end="1000" vehsPerHour="50" departLane="best" departSpeed="max" />
    <flow id="flow_2451" from="361256298#2" to="-140483224#11" begin="0" end="1000" vehsPerHour="50" departLane="best" departSpeed="max" />
    <flow id="flow_2470" from="140483249#1" to="140483249#0" begin="0" end="1000" vehsPerHour="50" departLane="best" departSpeed="max" />
    <flow id="flow_2489" from="140483211" to="-1120222500" begin="0" end="1000" vehsPerHour="50" departLane="best" departSpeed="max" />
    <flow id="flow_2508" from="140483211" to="-140483178#3" begin="0" end="1000" vehsPerHour="50" departLane="best" departSpeed="max" />
    <flow id="flow_2527" from="140483249#1" to="140483178#1" begin="0" end="1000" vehsPerHour="50" departLane="best" departSpeed="max" />
    <flow id="flow_2546" from="-361256298#2" to="114920907#1" begin="0" end="1000" vehsPerHour="50" departLane="best" departSpeed="max" />
    <flow id="flow_2565" from="-140483211" to="93590611#1" begin="0" end="1000" vehsPerHour="50" departLane="best" departSpeed="max" />
    <flow id="flow_2584" from="140483211" to="-114920912" begin="0" end="1000" vehsPerHour="50" departLane="best" departSpeed="max" />
    <flow id="flow_2603" from="-140483211" to="140483224#6" begin="0" end="1000" vehsPerHour="50" departLane="best" departSpeed="max" />
    <flow id="flow_2622" from="-361256298#2" to="-361256298#1" begin="0" end="1000" vehsPerHour="50" departLane="best" departSpeed="max" />
    <flow id="flow_2641" from="-140483211" to="1120222500" begin="0" end="1000" vehsPerHour="50" departLane="best" departSpeed="max" />
    <flow id="flow_2660" from="-140483211" to="-361256298#1" begin="0" end="1000" vehsPerHour="50" departLane="best" departSpeed="max" />
    <flow id="flow_2679" from="-140483211" to="-123172358" begin="0" end="1000" vehsPerHour="50" departLane="best" departSpeed="max" />
    <flow id="flow_2698" from="-140483211" to="361256298#0" begin="0" end="1000" vehsPerHour="50" departLane="best" departSpeed="max" />
    <flow id="flow_2717" from="361256298#2" to="140483254#0" begin="0" end="1000" vehsPerHour="50" departLane="best" departSpeed="max" />
    <flow id="flow_2736" from="-361256298#2" to="-93590599#0" begin="0" end="1000" vehsPerHour="50" departLane="best" departSpeed="max" />
    <flow id="flow_2755" from="-361256298#2" to="140483224#0" begin="0" end="1000" vehsPerHour="50" departLane="best" departSpeed="max" />
    <flow id="flow_2774" from="140483211" to="140483178#4" begin="0" end="1000" vehsPerHour="50" departLane="best" departSpeed="max" />
    <flow id="flow_2793" from="-361256298#2" to="-140483178#3" begin="0" end="1000" vehsPerHour="50" departLane="best" departSpeed="max" />
    <flow id="flow_2812" from="-140483211" to="-119709657" begin="0" end="1000" vehsPerHour="50" departLane="best" departSpeed="max" />
    <flow id="flow_2831" from="-361256298#2" to="-140483211" begin="0" end="1000" vehsPerHour="50" departLane="best" departSpeed="max" />
    <flow id="flow_2850" from="361260925#2" to="-140483178#4" begin="0" end="1000" vehsPerHour="50" departLane="best" departSpeed="max" />
    <flow id="flow_2869" from="140483249#0" to="140483178#3" begin="0" end="1000" vehsPerHour="50" departLane="best" departSpeed="max" />
    <flow id="flow_2888" from="140483249#0" to="361256298#2" begin="0" end="1000" vehsPerHour="50" departLane="best" departSpeed="max" />
    <flow id="flow_2907" from="361260925#4" to="123172358" begin="0" end="1000" vehsPerHour="50" departLane="best" departSpeed="max" />
    <flow id="flow_2926" from="140483249#0" to="-140483224#11" begin="0" end="1000" vehsPerHour="50" departLane="best" departSpeed="max" />
    <flow id="flow_2945" from="361260925#4" to="140483249#1" begin="0" end="1000" vehsPerHour="50" departLane="best" departSpeed="max" />
    <flow id="flow_2964" from="361260925#4" to="140483178#4" begin="0" end="1000" vehsPerHour="50" departLane="best" departSpeed="max" />
    <flow id="flow_2983" from="361260925#4" to="-140483178#4" begin="0" end="1000" vehsPerHour="50" departLane="best" departSpeed="max" />
    <flow id="flow_3002" from="361260925#4" to="114920907#1" begin="0" end="1000" vehsPerHour="50" departLane="best" departSpeed="max" />
    <flow id="flow_3021" from="361260925#2" to="-114920907#1" begin="0" end="1000" vehsPerHour="50" departLane="best" departSpeed="max" />
    <flow id="flow_3040" from="140483249#0" to="-93590611#1" begin="0" end="1000" vehsPerHour="50" departLane="best" departSpeed="max" />
    <flow id="flow_3059" from="140483249#0" to="-114920912" begin="0" end="1000" vehsPerHour="50" departLane="best" departSpeed="max" />
    <flow id="flow_3078" from="140483249#0" to="140483224#6" begin="0" end="1000" vehsPerHour="50" departLane="best" departSpeed="max" />
    <flow id="flow_3097" from="361260925#2" to="361256298#1" begin="0" end="1000" vehsPerHour="50" departLane="best" departSpeed="max" />
    <flow id="flow_3116" from="140483249#0" to="1120222500" begin="0" end="1000" vehsPerHour="50" departLane="best" departSpeed="max" />
    <flow id="flow_3135" from="140483249#0" to="-361256298#2" begin="0" end="1000" vehsPerHour="50" departLane="best" departSpeed="max" />
    <flow id="flow_3154" from="361260925#2" to="-793339796#2" begin="0" end="1000" vehsPerHour="50" departLane="best" departSpeed="max" />
    <flow id="flow_3173" from="361260925#4" to="361256298#1" begin="0" end="1000" vehsPerHour="50" departLane="best" departSpeed="max" />
    <flow id="flow_3192" from="361260925#2" to="-140483254#0" begin="0" end="1000" vehsPerHour="50" departLane="best" departSpeed="max" />
    <flow id="flow_3211" from="361260925#4" to="93590599#0" begin="0" end="1000" vehsPerHour="50" departLane="best" departSpeed="max" />
    <flow id="flow_3230" from="361260925#4" to="140483224#0" begin="0" end="1000" vehsPerHour="50" departLane="best" departSpeed="max" />
    <flow id="flow_3249" from="361260925#2" to="140483178#3" begin="0" end="1000" vehsPerHour="50" departLane="best" departSpeed="max" />
    <flow id="flow_3268" from="361260925#2" to="1120222500" begin="0" end="1000" vehsPerHour="50" departLane="best" departSpeed="max" />
    <flow id="flow_3287" from="140483249#0" to="140483178#3" begin="0" end="1000" vehsPerHour="50" departLane="best" departSpeed="max" />
    <flow id="flow_3306" from="361260925#2" to="140483211" begin="0" end="1000" vehsPerHour="50" departLane="best" departSpeed="max" />
    <flow id="flow_3325" from="-140483178#4" to="140483178#4" begin="0" end="1000" vehsPerHour="50" departLane="best" departSpeed="max" />
    <flow id="flow_3344" from="140483178#3" to="-119709657" begin="0" end="1000" vehsPerHour="50" departLane="best" departSpeed="max" />
    <flow id="flow_3363" from="140483178#4" to="140483178#5" begin="0" end="1000" vehsPerHour="50" departLane="best" departSpeed="max" />
    <flow id="flow_3382" from="-140483178#4" to="123172358" begin="0" end="1000" vehsPerHour="50" departLane="best" departSpeed="max" />
    <flow id="flow_3401" from="-140483178#4" to="-140483224#12" begin="0" end="1000" vehsPerHour="50" departLane="best" departSpeed="max" />
    <flow id="flow_3420" from="-140483178#4" to="-140483211" begin="0" end="1000" vehsPerHour="50" departLane="best" departSpeed="max" />
    <flow id="flow_3439" from="-1120222500" to="361260925#2" begin="0" end="1000" vehsPerHour="50" departLane="best" departSpeed="max" />
    <flow id="flow_3458" from="-140483178#3" to="-140483178#3" begin="0" end="1000" vehsPerHour="50" departLane="best" departSpeed="max" />
    <flow id="flow_3477" from="-140483178#4" to="114920907#1" begin="0" end="1000" vehsPerHour="50" departLane="best" departSpeed="max" />
    <flow id="flow_3496" from="140483178#3" to="-114920907#1" begin="0" end="1000" vehsPerHour="50" departLane="best" departSpeed="max" />
    <flow id="flow_3515" from="-1120222500" to="-93590611#1" begin="0" end="1000" vehsPerHour="50" departLane="best" departSpeed="max" />
    <flow id="flow_3534" from="140483178#4" to="361256298#1" begin="0" end="1000" vehsPerHour="50" departLane="best" departSpeed="max" />
    <flow id="flow_3553" from="140483178#3" to="140483224#7" begin="0" end="1000" vehsPerHour="50" departLane="best" departSpeed="max" />
    <flow id="flow_3572" from="-140483178#4" to="-361256298#1" begin="0" end="1000" vehsPerHour="50" departLane="best" departSpeed="max" />
    <flow id="flow_3591" from="140483178#3" to="-140483178#3" begin="0" end="1000" vehsPerHour="50" departLane="best" departSpeed="max" />
    <flow id="flow_3610" from="-140483178#3" to="140483211" begin="0" end="1000" vehsPerHour="50" departLane="best" departSpeed="max" />
    <flow id="flow_3629" from="140483178#3" to="-793339796#0" begin="0" end="1000" vehsPerHour="50" departLane="best" departSpeed="max" />
    <flow id="flow_3648" from="-1120222500" to="361257726" begin="0" end="1000" vehsPerHour="50" departLane="best" departSpeed="max" />
    <flow id="flow_3667" from="-140483178#3" to="-140483254#0" begin="0" end="1000" vehsPerHour="50" departLane="best" departSpeed="max" />
    <flow id="flow_3686" from="-140483178#3" to="-93590599#0" begin="0" end="1000" vehsPerHour="50" departLane="best" departSpeed="max" />
    <flow id="flow_3705" from="140483178#4" to="140483224#1" begin="0" end="1000" vehsPerHour="50" departLane="best" departSpeed="max" />
    <flow id="flow_3724" from="-140483178#3" to="140483178#3" begin="0" end="1000" vehsPerHour="50" departLane="best" departSpeed="max" />
    <flow id="flow_3743" from="-140483178#4" to="1120222500" begin="0" end="1000" vehsPerHour="50" departLane="best" departSpeed="max" />
    <flow id="flow_3762" from="140483178#3" to="140483178#3" begin="0" end="1000" vehsPerHour="50" departLane="best" departSpeed="max" />
    <flow id="flow_3781" from="-140483178#3" to="-361256298#1" begin="0" end="1000" vehsPerHour="50" departLane="best" departSpeed="max" />
    <flow id="flow_3800" from="-140483178#4" to="-140483178#4" begin="0" end="1000" vehsPerHour="50" departLane="best" departSpeed="max" />
    <flow id="flow_3819" from="140483178#3" to="140483178#3" begin="0" end="1000" vehsPerHour="50" departLane="best" departSpeed="max" />
    <flow id="flow_3838" from="1120222500" to="361256298#3" begin="0" end="1000" vehsPerHour="50" departLane="best" departSpeed="max" />
    <flow id="flow_3857" from="-140483178#4" to="123172358" begin="0" end="1000" vehsPerHour="50" departLane="best" departSpeed="max" />
    <flow id="flow_3876" from="-140483178#4" to="-140483224#12" begin="0" end="1000" vehsPerHour="50" departLane="best" departSpeed="max" />
    <flow id="flow_3895" from="-140483178#4" to="361256298#2" begin="0" end="1000" vehsPerHour="50" departLane="best" departSpeed="max" />
    <flow id="flow_3914" from="1120222500" to="361260925#4" begin="0" end="1000" vehsPerHour="50" departLane="best" departSpeed="max" />
    <flow id="flow_3933" from="-140483178#4" to="140483178#4" begin="0" end="1000" vehsPerHour="50" departLane="best" departSpeed="max" />
    <flow id="flow_3952" from="-140483178#4" to="-140483178#2" begin="0" end="1000" vehsPerHour="50" departLane="best" departSpeed="max" />
    <flow id="flow_3971" from="-140483178#4" to="-114920907#1" begin="0" end="1000" vehsPerHour="50" departLane="best" departSpeed="max" />
    <flow id="flow_3990" from="1120222500" to="-93590611#1" begin="0" end="1000" vehsPerHour="50" departLane="best" departSpeed="max" />
    <flow id="flow_4009" from="-140483178#4" to="361256298#2" begin="0" end="1000" vehsPerHour="50" departLane="best" departSpeed="max" />
    <flow id="flow_4028" from="-1120222500" to="140483224#8" begin="0" end="1000" vehsPerHour="50" departLane="best" departSpeed="max" />
    <flow id="flow_4047" from="1120222500" to="361257726" begin="0" end="1000" vehsPerHour="50" departLane="best" departSpeed="max" />
    <flow id="flow_4066" from="-140483178#3" to="1120222500" begin="0" end="1000" vehsPerHour="50" departLane="best" departSpeed="max" />
    <flow id="flow_4085" from="140483178#3" to="-140483211" begin="0" end="1000" vehsPerHour="50" departLane="best" departSpeed="max" />