<?xml version="1.0" encoding="UTF-8"?>

<!-- generated on 2026-01-29 22:14:42 by Eclipse SUMO netedit Version 1.24.0
<neteditConfiguration xmlns:xsi="http://www.w3.org/2001/XMLSchema-instance" xsi:noNamespaceSchemaLocation="http://sumo.dlr.de/xsd/neteditConfiguration.xsd">

    <input>
        <sumo-net-file value="K:\Kurt\THESIS\DRL_TrafficLight\Balibago_traci\network\balibago.net.xml"/>
    </input>

    <output>
        <output-file value="K:\Kurt\THESIS\DRL_TrafficLight\Balibago_traci\network\balibago.net.xml"/>
    </output>

    <processing>
        <geometry.min-radius.fix.railways value="false"/>
        <geometry.avoid-overlap value="false"/>
        <geometry.max-grade.fix value="false"/>
        <offset.disable-normalization value="true"/>
        <lefthand value="0"/>
    </processing>

    <junctions>
        <no-internal-links value="false"/>
        <no-turnarounds value="true"/>
        <junctions.corner-detail value="5"/>
        <junctions.limit-turn-speed value="5.50"/>
        <rectangular-lane-cut value="0"/>
    </junctions>

    <pedestrian>
        <walkingareas value="0"/>
    </pedestrian>

</neteditConfiguration>
-->

<net version="1.20" junctionCornerDetail="5" limitTurnSpeed="5.50" avoidOverlap="0" xmlns:xsi="http://www.w3.org/2001/XMLSchema-instance" xsi:noNamespaceSchemaLocation="http://sumo.dlr.de/xsd/net_file.xsd">

    <location netOffset="-294452.66,-1580429.35" convBoundary="0.00,0.00,2683.08,1785.66" origBoundary="121.094416,14.288115,121.119324,14.304325" projParameter="+proj=utm +zone=51 +ellps=WGS84 +datum=WGS84 +units=m +no_defs"/>

    <type id="highway.busway" priority="1" numLanes="1" speed="27.78" allow="bus" oneway="1"/>
    <type id="highway.footway" priority="1" numLanes="1" speed="2.78" allow="pedestrian" oneway="1" width="2.00"/>
    <type id="highway.primary" priority="12" numLanes="2" speed="27.78" disallow="tram rail_urban rail rail_electric rail_fast ship container cable_car subway aircraft wheelchair scooter drone" oneway="0"/>
    <type id="highway.residential" priority="3" numLanes="1" speed="13.89" disallow="tram rail_urban rail rail_electric rail_fast ship container cable_car subway aircraft wheelchair scooter drone" oneway="0"/>
    <type id="highway.secondary" priority="11" numLanes="1" speed="27.78" disallow="tram rail_urban rail rail_electric rail_fast ship container cable_car subway aircraft wheelchair scooter drone" oneway="0"/>
    <type id="highway.service" priority="1" numLanes="1" speed="5.56" allow="pedestrian delivery bicycle" oneway="0"/>
    <type id="highway.steps" priority="1" numLanes="1" speed="1.39" allow="pedestrian" oneway="1" width="2.00"/>
    <type id="highway.tertiary" priority="10" numLanes="1" speed="22.22" disallow="tram rail_urban rail rail_electric rail_fast ship container cable_car subway aircraft wheelchair scooter drone" oneway="0"/>
    <type id="highway.trunk" priority="13" numLanes="2" speed="27.78" disallow="pedestrian bicycle tram rail_urban rail rail_electric rail_fast ship container cable_car subway aircraft wheelchair scooter drone" oneway="0"/>
    <type id="highway.unclassified" priority="4" numLanes="1" speed="13.89" disallow="tram rail_urban rail rail_electric rail_fast ship container cable_car subway aircraft wheelchair scooter drone" oneway="0"/>

    <edge id=":10010530869_0" function="internal">
        <lane id=":10010530869_0_0" index="0" disallow="pedestrian bicycle tram rail_urban rail rail_electric rail_fast ship container cable_car subway aircraft wheelchair scooter drone" speed="27.78" length="6.67" shape="1075.56,1337.89 1073.33,1344.18"/>
        <lane id=":10010530869_0_1" index="1" disallow="pedestrian bicycle tram rail_urban rail rail_electric rail_fast ship container cable_car subway aircraft wheelchair scooter drone" speed="27.78" length="6.67" shape="1072.54,1336.83 1070.31,1343.12"/>
    </edge>
    <edge id=":10010530869_2" function="internal">
        <lane id=":10010530869_2_0" index="0" allow="delivery" speed="7.12" length="3.24" shape="1072.54,1336.83 1070.85,1339.59"/>
    </edge>
    <edge id=":10010530869_6" function="internal">
        <lane id=":10010530869_6_0" index="0" allow="delivery" speed="7.12" length="12.17" shape="1070.85,1339.59 1070.71,1339.82 1068.16,1340.52 1064.89,1338.90 1060.89,1334.97"/>
    </edge>
    <edge id=":10010530869_3" function="internal">
        <lane id=":10010530869_3_0" index="0" allow="delivery" speed="7.34" length="7.06" shape="1064.28,1340.99 1064.26,1340.06 1063.69,1338.75 1062.57,1337.05 1060.89,1334.97"/>
    </edge>
    <edge id=":10010530869_4" function="internal">
        <lane id=":10010530869_4_0" index="0" disallow="pedestrian bicycle tram rail_urban rail rail_electric rail_fast ship container cable_car subway aircraft wheelchair scooter drone" speed="27.78" length="6.68" shape="1064.28,1340.99 1066.51,1334.69"/>
        <lane id=":10010530869_4_1" index="1" disallow="pedestrian bicycle tram rail_urban rail rail_electric rail_fast ship container cable_car subway aircraft wheelchair scooter drone" speed="27.78" length="6.68" shape="1067.29,1342.05 1069.52,1335.76"/>
    </edge>
    <edge id=":10010530869_w0" function="walkingarea">
        <lane id=":10010530869_w0_0" index="0" allow="pedestrian" speed="2.78" length="6.67" width="1.50" shape="1074.84,1344.71 1076.25,1345.21 1078.48,1338.93 1077.07,1338.43"/>
    </edge>
    <edge id=":10010530869_w1" function="walkingarea">
        <lane id=":10010530869_w1_0" index="0" allow="pedestrian" speed="2.78" length="5.21" width="3.20" shape="1065.00,1334.16 1063.58,1333.66 1062.11,1333.93 1059.68,1336.01 1061.35,1339.96 1062.77,1340.46"/>
    </edge>
    <edge id=":10011156670_0" function="internal">
        <lane id=":10011156670_0_0" index="0" allow="pedestrian delivery bicycle" speed="3.65" length="4.67" shape="1114.20,1027.93 1113.22,1026.87 1113.01,1026.00 1113.59,1025.31 1114.94,1024.81"/>
    </edge>
    <edge id=":10011156671_0" function="internal">
        <lane id=":10011156671_0_0" index="0" disallow="pedestrian bicycle tram rail_urban rail rail_electric rail_fast ship container cable_car subway aircraft wheelchair scooter drone" speed="27.78" length="9.43" shape="1178.32,1037.88 1175.32,1046.82"/>
        <lane id=":10011156671_0_1" index="1" disallow="pedestrian bicycle tram rail_urban rail rail_electric rail_fast ship container cable_car subway aircraft wheelchair scooter drone" speed="27.78" length="9.43" shape="1175.29,1036.87 1172.29,1045.81"/>
    </edge>
    <edge id=":10011156671_2" function="internal">
        <lane id=":10011156671_2_0" index="0" allow="delivery" speed="8.23" length="2.44" shape="1175.29,1036.87 1173.91,1038.88"/>
    </edge>
    <edge id=":10011156671_9" function="internal">
        <lane id=":10011156671_9_0" index="0" allow="delivery" speed="8.23" length="11.60" shape="1173.91,1038.88 1173.85,1038.97 1171.27,1040.10 1167.54,1040.27 1162.67,1039.46"/>
    </edge>
    <edge id=":10011156671_3" function="internal">
        <lane id=":10011156671_3_0" index="0" allow="delivery" speed="5.84" length="6.59" shape="1163.41,1036.34 1165.62,1036.69 1167.32,1036.55 1168.52,1035.93 1169.22,1034.83"/>
    </edge>
    <edge id=":10011156671_4" function="internal">
        <lane id=":10011156671_4_0" index="0" allow="delivery" speed="7.92" length="14.84" shape="1163.41,1036.34 1168.15,1037.93 1171.21,1040.04 1172.59,1042.66 1172.29,1045.81"/>
    </edge>
    <edge id=":10011156671_5" function="internal">
        <lane id=":10011156671_5_0" index="0" allow="pedestrian delivery bicycle" speed="3.65" length="4.67" shape="1163.41,1036.34 1164.39,1037.40 1164.60,1038.27 1164.02,1038.96 1162.67,1039.46"/>
    </edge>
    <edge id=":10011156671_6" function="internal">
        <lane id=":10011156671_6_0" index="0" allow="delivery" speed="5.45" length="6.44" shape="1166.22,1043.77 1166.40,1042.30 1165.87,1041.09 1164.63,1040.14 1162.67,1039.46"/>
    </edge>
    <edge id=":10011156671_7" function="internal">
        <lane id=":10011156671_7_0" index="0" disallow="pedestrian bicycle tram rail_urban rail rail_electric rail_fast ship container cable_car subway aircraft wheelchair scooter drone" speed="27.78" length="9.43" shape="1166.22,1043.77 1169.22,1034.83"/>
        <lane id=":10011156671_7_1" index="1" disallow="pedestrian bicycle tram rail_urban rail rail_electric rail_fast ship container cable_car subway aircraft wheelchair scooter drone" speed="27.78" length="9.43" shape="1169.26,1044.79 1172.25,1035.85"/>
    </edge>
    <edge id=":10011156671_w0" function="walkingarea">
        <lane id=":10011156671_w0_0" index="0" allow="pedestrian" speed="2.78" length="9.43" width="1.50" shape="1176.84,1047.33 1178.26,1047.81 1181.26,1038.87 1179.84,1038.39"/>
    </edge>
    <edge id=":10011156671_w1" function="walkingarea">
        <lane id=":10011156671_w1_0" index="0" allow="pedestrian" speed="2.78" length="5.71" width="3.20" shape="1167.70,1034.32 1166.28,1033.85 1163.78,1034.79 1163.04,1037.90 1162.30,1041.01 1163.28,1042.78 1164.70,1043.26"/>
    </edge>
    <edge id=":10011156673_0" function="internal">
        <lane id=":10011156673_0_0" index="0" disallow="pedestrian bicycle tram rail_urban rail rail_electric rail_fast ship container cable_car subway aircraft wheelchair scooter drone" speed="27.78" length="9.43" shape="1189.78,1003.57 1186.80,1012.52"/>
        <lane id=":10011156673_0_1" index="1" disallow="pedestrian bicycle tram rail_urban rail rail_electric rail_fast ship container cable_car subway aircraft wheelchair scooter drone" speed="27.78" length="9.43" shape="1186.74,1002.56 1183.76,1011.50"/>
    </edge>
    <edge id=":10011156673_2" function="internal">
        <lane id=":10011156673_2_0" index="0" allow="delivery" speed="8.27" length="2.40" shape="1186.74,1002.56 1185.38,1004.53"/>
    </edge>
    <edge id=":10011156673_9" function="internal">
        <lane id=":10011156673_9_0" index="0" allow="delivery" speed="8.27" length="11.62" shape="1185.38,1004.53 1185.32,1004.62 1182.74,1005.75 1179.00,1005.94 1174.10,1005.19"/>
    </edge>
    <edge id=":10011156673_3" function="internal">
        <lane id=":10011156673_3_0" index="0" allow="delivery" speed="5.89" length="6.64" shape="1174.80,1002.07 1177.04,1002.39 1178.76,1002.24 1179.97,1001.62 1180.67,1000.53"/>
    </edge>
    <edge id=":10011156673_4" function="internal">
        <lane id=":10011156673_4_0" index="0" allow="delivery" speed="7.91" length="14.94" shape="1174.80,1002.07 1179.58,1003.60 1182.67,1005.68 1184.07,1008.32 1183.76,1011.50"/>
    </edge>
    <edge id=":10011156673_5" function="internal">
        <lane id=":10011156673_5_0" index="0" allow="pedestrian delivery bicycle" speed="3.65" length="4.67" shape="1174.80,1002.07 1175.79,1003.11 1176.01,1003.98 1175.45,1004.67 1174.10,1005.19"/>
    </edge>
    <edge id=":10011156673_6" function="internal">
        <lane id=":10011156673_6_0" index="0" allow="delivery" speed="5.44" length="6.47" shape="1177.69,1009.48 1177.87,1008.00 1177.33,1006.78 1176.08,1005.85 1174.10,1005.19"/>
    </edge>
    <edge id=":10011156673_7" function="internal">
        <lane id=":10011156673_7_0" index="0" disallow="pedestrian bicycle tram rail_urban rail rail_electric rail_fast ship container cable_car subway aircraft wheelchair scooter drone" speed="27.78" length="9.43" shape="1177.69,1009.48 1180.67,1000.53"/>
        <lane id=":10011156673_7_1" index="1" disallow="pedestrian bicycle tram rail_urban rail rail_electric rail_fast ship container cable_car subway aircraft wheelchair scooter drone" speed="27.78" length="9.43" shape="1180.72,1010.49 1183.70,1001.54"/>
    </edge>
    <edge id=":10011156673_w0" function="walkingarea">
        <lane id=":10011156673_w0_0" index="0" allow="pedestrian" speed="2.78" length="9.43" width="1.50" shape="1188.31,1013.02 1189.74,1013.50 1192.72,1004.55 1191.29,1004.07"/>
    </edge>
    <edge id=":10011156673_w1" function="walkingarea">
        <lane id=":10011156673_w1_0" index="0" allow="pedestrian" speed="2.78" length="5.73" width="3.20" shape="1179.15,1000.03 1177.73,999.55 1175.14,1000.51 1174.45,1003.63 1173.76,1006.76 1174.75,1008.50 1176.17,1008.98"/>
    </edge>
    <edge id=":10011156675_0" function="internal">
        <lane id=":10011156675_0_0" index="0" allow="pedestrian delivery bicycle" speed="5.56" length="0.29" shape="1145.27,998.61 1144.99,998.54"/>
    </edge>
    <edge id=":10011156675_1" function="internal">
        <lane id=":10011156675_1_0" index="0" allow="pedestrian delivery bicycle" speed="5.56" length="0.31" shape="1145.74,995.43 1146.04,995.50"/>
    </edge>
    <edge id=":10011156675_w0" function="walkingarea">
        <lane id=":10011156675_w0_0" index="0" allow="pedestrian" speed="2.78" length="2.24" width="6.40" shape="1144.89,1000.16 1146.42,993.95 1146.11,993.87 1144.62,1000.10"/>
    </edge>
    <edge id=":10011156676_0" function="internal">
        <lane id=":10011156676_0_0" index="0" allow="pedestrian delivery bicycle" speed="5.56" length="0.31" shape="1138.63,997.01 1138.32,996.93"/>
    </edge>
    <edge id=":10011156676_1" function="internal">
        <lane id=":10011156676_1_0" index="0" allow="pedestrian delivery bicycle" speed="5.56" length="0.26" shape="1139.12,993.83 1139.37,993.90"/>
    </edge>
    <edge id=":10011156676_w0" function="walkingarea">
        <lane id=":10011156676_w0_0" index="0" allow="pedestrian" speed="2.78" length="2.23" width="6.40" shape="1138.25,998.56 1139.75,992.34 1139.52,992.28 1137.92,998.48"/>
    </edge>
    <edge id=":10011156683_0" function="internal">
        <lane id=":10011156683_0_0" index="0" allow="pedestrian delivery bicycle" speed="5.56" length="11.03" shape="1124.41,1013.24 1113.71,1010.60"/>
    </edge>
    <edge id=":10011156683_1" function="internal">
        <lane id=":10011156683_1_0" index="0" allow="pedestrian delivery bicycle" speed="5.56" length="12.09" shape="1124.41,1013.24 1122.02,1012.19 1120.07,1010.32 1118.55,1007.62 1117.47,1004.11"/>
    </edge>
    <edge id=":10011156683_2" function="internal">
        <lane id=":10011156683_2_0" index="0" allow="pedestrian delivery bicycle" speed="3.65" length="4.67" shape="1124.41,1013.24 1123.44,1012.18 1123.24,1011.31 1123.83,1010.63 1125.18,1010.14"/>
    </edge>
    <edge id=":10011156683_3" function="internal">
        <lane id=":10011156683_3_0" index="0" allow="pedestrian delivery bicycle" speed="5.56" length="9.26" shape="1120.43,1002.66 1121.28,1005.63 1122.35,1007.86 1123.65,1009.37 1125.18,1010.14"/>
    </edge>
    <edge id=":10011156683_4" function="internal">
        <lane id=":10011156683_4_0" index="0" allow="pedestrian delivery bicycle" speed="5.56" length="13.71" shape="1120.43,1002.66 1120.85,1006.96 1119.86,1009.72 1117.48,1010.93 1113.71,1010.60"/>
    </edge>
    <edge id=":10011156683_5" function="internal">
        <lane id=":10011156683_5_0" index="0" allow="pedestrian delivery bicycle" speed="3.69" length="4.81" shape="1120.43,1002.66 1120.24,1004.13 1119.68,1004.87 1118.76,1004.86 1117.47,1004.11"/>
    </edge>
    <edge id=":10011156683_6" function="internal">
        <lane id=":10011156683_6_0" index="0" allow="pedestrian delivery bicycle" speed="4.79" length="5.96" shape="1114.48,1007.49 1116.15,1007.65 1117.20,1007.13 1117.65,1005.96 1117.47,1004.11"/>
    </edge>
    <edge id=":10011156683_7" function="internal">
        <lane id=":10011156683_7_0" index="0" allow="pedestrian delivery bicycle" speed="5.56" length="11.03" shape="1114.48,1007.49 1125.18,1010.14"/>
    </edge>
    <edge id=":10011156683_8" function="internal">
        <lane id=":10011156683_8_0" index="0" allow="pedestrian delivery bicycle" speed="3.65" length="4.67" shape="1114.48,1007.49 1115.45,1008.55 1115.64,1009.43 1115.06,1010.11 1113.71,1010.60"/>
    </edge>
    <edge id=":10011156683_w0" function="walkingarea">
        <lane id=":10011156683_w0_0" index="0" allow="pedestrian" speed="2.78" length="8.42" width="6.40" shape="1124.03,1014.80 1125.57,1008.59 1123.14,1007.33 1122.40,1006.34 1121.97,1005.09 1121.86,1003.60 1122.07,1001.86 1115.99,1004.83 1116.01,1005.61 1115.87,1005.84 1115.63,1005.97 1115.30,1006.01 1114.86,1005.94 1113.32,1012.15"/>
    </edge>
    <edge id=":10052881229_0" function="internal">
        <lane id=":10052881229_0_0" index="0" disallow="pedestrian tram rail_urban rail rail_electric rail_fast ship container cable_car subway aircraft wheelchair scooter drone" speed="6.52" length="8.33" shape="805.71,802.66 803.49,802.17 801.60,802.46 800.01,803.52 798.75,805.36"/>
    </edge>
    <edge id=":10052881229_1" function="internal">
        <lane id=":10052881229_1_0" index="0" disallow="pedestrian tram rail_urban rail rail_electric rail_fast ship container cable_car subway aircraft wheelchair scooter drone" speed="7.47" length="11.96" shape="805.71,802.66 802.13,800.96 799.82,799.00 798.79,796.77 799.04,794.27"/>
    </edge>
    <edge id=":10052881229_2" function="internal">
        <lane id=":10052881229_2_0" index="0" disallow="pedestrian tram rail_urban rail rail_electric rail_fast ship container cable_car subway aircraft wheelchair scooter drone" speed="3.65" length="4.67" shape="805.71,802.66 804.89,801.47 804.82,800.58 805.49,799.99 806.90,799.69"/>
    </edge>
    <edge id=":10052881229_3" function="internal">
        <lane id=":10052881229_3_0" index="0" disallow="pedestrian tram rail_urban rail rail_electric rail_fast ship container cable_car subway aircraft wheelchair scooter drone" speed="6.25" length="8.06" shape="802.52,793.97 802.34,795.69 803.00,797.22 804.52,798.55 806.90,799.69"/>
    </edge>
    <edge id=":10052881229_4" function="internal">
        <lane id=":10052881229_4_0" index="0" disallow="pedestrian tram rail_urban rail rail_electric rail_fast ship container cable_car subway aircraft wheelchair scooter drone" speed="13.89" length="12.03" shape="802.52,793.97 801.50,797.39 800.92,799.78 800.19,802.11 798.75,805.36"/>
    </edge>
    <edge id=":10052881229_5" function="internal">
        <lane id=":10052881229_5_0" index="0" disallow="pedestrian tram rail_urban rail rail_electric rail_fast ship container cable_car subway aircraft wheelchair scooter drone" speed="3.76" length="1.92" shape="802.52,793.97 801.77,795.35 801.47,795.53"/>
    </edge>
    <edge id=":10052881229_9" function="internal">
        <lane id=":10052881229_9_0" index="0" disallow="pedestrian tram rail_urban rail rail_electric rail_fast ship container cable_car subway aircraft wheelchair scooter drone" speed="3.76" length="3.18" shape="801.47,795.53 800.93,795.86 800.03,795.50 799.04,794.27"/>
    </edge>
    <edge id=":10052881229_6" function="internal">
        <lane id=":10052881229_6_0" index="0" disallow="pedestrian tram rail_urban rail rail_electric rail_fast ship container cable_car subway aircraft wheelchair scooter drone" speed="13.89" length="10.20" shape="795.88,803.94 797.10,801.19 797.70,799.20 798.18,797.17 799.04,794.27"/>
    </edge>
    <edge id=":10052881229_7" function="internal">
        <lane id=":10052881229_7_0" index="0" disallow="pedestrian tram rail_urban rail rail_electric rail_fast ship container cable_car subway aircraft wheelchair scooter drone" speed="8.04" length="3.53" shape="795.88,803.94 797.88,801.04"/>
    </edge>
    <edge id=":10052881229_8" function="internal">
        <lane id=":10052881229_8_0" index="0" disallow="pedestrian tram rail_urban rail rail_electric rail_fast ship container cable_car subway aircraft wheelchair scooter drone" speed="3.65" length="1.44" shape="795.88,803.94 797.13,803.22"/>
    </edge>
    <edge id=":10052881229_10" function="internal">
        <lane id=":10052881229_10_0" index="0" disallow="pedestrian tram rail_urban rail rail_electric rail_fast ship container cable_car subway aircraft wheelchair scooter drone" speed="8.04" length="9.65" shape="797.88,801.04 800.38,799.36 803.39,798.91 806.90,799.69"/>
    </edge>
    <edge id=":10052881229_11" function="internal">
        <lane id=":10052881229_11_0" index="0" disallow="pedestrian tram rail_urban rail rail_electric rail_fast ship container cable_car subway aircraft wheelchair scooter drone" speed="3.65" length="3.23" shape="797.13,803.22 798.03,803.22 798.56,803.93 798.75,805.36"/>
    </edge>
    <edge id=":10052881229_w0" function="walkingarea">
        <lane id=":10052881229_w0_0" index="0" allow="pedestrian" speed="2.78" length="4.28" width="1.50" shape="800.18,806.08 801.52,806.74 804.58,805.55 805.10,804.14 804.07,803.87 803.09,803.82 802.21,804.01 801.43,804.45 800.76,805.14"/>
    </edge>
    <edge id=":10052881229_w1" function="walkingarea">
        <lane id=":10052881229_w1_0" index="0" allow="pedestrian" speed="2.78" length="4.63" width="1.50" shape="807.52,798.21 808.04,796.80 805.79,793.98 804.37,793.50 803.93,795.18 804.09,795.86 804.53,796.49 805.23,797.09 806.21,797.66"/>
    </edge>
    <edge id=":10052881229_w2" function="walkingarea">
        <lane id=":10052881229_w2_0" index="0" allow="pedestrian" speed="2.78" length="8.83" width="1.50" shape="797.20,794.73 795.78,794.25 793.10,802.56 794.45,803.23 795.33,801.31 795.88,799.84 796.22,798.59 796.51,797.32 796.90,795.79"/>
    </edge>
    <edge id=":1042133796_0" function="internal">
        <lane id=":1042133796_0_0" index="0" allow="pedestrian delivery bicycle" speed="3.65" length="4.67" shape="1494.25,1075.72 1495.35,1076.65 1495.66,1077.49 1495.17,1078.24 1493.89,1078.90"/>
    </edge>
    <edge id=":1042133797_0" function="internal">
        <lane id=":1042133797_0_0" index="0" disallow="pedestrian tram rail_urban rail rail_electric rail_fast ship container cable_car subway aircraft wheelchair scooter drone" speed="6.38" length="9.29" shape="1212.59,615.68 1210.09,615.06 1208.06,615.42 1206.50,616.78 1205.43,619.13"/>
    </edge>
    <edge id=":1042133797_1" function="internal">
        <lane id=":1042133797_1_0" index="0" disallow="pedestrian tram rail_urban rail rail_electric rail_fast ship container cable_car subway aircraft wheelchair scooter drone" speed="3.65" length="1.44" shape="1212.59,615.68 1211.79,614.49"/>
    </edge>
    <edge id=":1042133797_4" function="internal">
        <lane id=":1042133797_4_0" index="0" disallow="pedestrian tram rail_urban rail rail_electric rail_fast ship container cable_car subway aircraft wheelchair scooter drone" speed="3.65" length="3.23" shape="1211.79,614.49 1211.72,613.60 1212.39,613.01 1213.80,612.72"/>
    </edge>
    <edge id=":1042133797_2" function="internal">
        <lane id=":1042133797_2_0" index="0" disallow="pedestrian tram rail_urban rail rail_electric rail_fast ship container cable_car subway aircraft wheelchair scooter drone" speed="22.22" length="13.71" shape="1200.86,608.28 1204.78,609.33 1207.44,610.17 1210.04,611.18 1213.80,612.72"/>
    </edge>
    <edge id=":1042133797_3" function="internal">
        <lane id=":1042133797_3_0" index="0" disallow="pedestrian tram rail_urban rail rail_electric rail_fast ship container cable_car subway aircraft wheelchair scooter drone" speed="6.17" length="8.21" shape="1200.05,611.37 1201.70,612.19 1202.64,613.61 1202.85,615.62 1202.36,618.22"/>
    </edge>
    <edge id=":1042133797_w0" function="walkingarea">
        <lane id=":1042133797_w0_0" index="0" allow="pedestrian" speed="2.78" length="4.47" width="1.50" shape="1206.96,619.58 1208.40,620.01 1211.42,618.55 1211.99,617.17 1210.78,616.80 1209.72,616.73 1208.81,616.98 1208.04,617.54 1207.43,618.41"/>
    </edge>
    <edge id=":1042133797_w1" function="walkingarea">
        <lane id=":1042133797_w1_0" index="0" allow="pedestrian" speed="2.78" length="14.00" width="1.50" shape="1214.41,611.24 1214.98,609.85 1212.20,608.71 1210.13,607.87 1208.42,607.23 1206.68,606.66 1204.54,606.05 1201.64,605.28 1201.26,606.73 1204.12,607.49 1206.23,608.09 1207.94,608.65 1209.63,609.29 1211.67,610.12"/>
    </edge>
    <edge id=":1042133819_0" function="internal">
        <lane id=":1042133819_0_0" index="0" disallow="pedestrian tram rail_urban rail rail_electric rail_fast ship container cable_car subway aircraft wheelchair scooter drone" speed="27.78" length="14.61" shape="1013.29,833.08 1000.39,826.14"/>
        <lane id=":1042133819_0_1" index="1" disallow="pedestrian tram rail_urban rail rail_electric rail_fast ship container cable_car subway aircraft wheelchair scooter drone" speed="27.78" length="14.61" shape="1014.78,830.25 1001.94,823.33"/>
    </edge>
    <edge id=":1042133819_2" function="internal">
        <lane id=":1042133819_2_0" index="0" disallow="pedestrian tram rail_urban rail rail_electric rail_fast ship container cable_car subway aircraft wheelchair scooter drone" speed="8.62" length="3.88" shape="1014.78,830.25 1011.75,827.83"/>
    </edge>
    <edge id=":1042133819_3" function="internal">
        <lane id=":1042133819_3_0" index="0" disallow="pedestrian tram rail_urban rail rail_electric rail_fast ship container cable_car subway aircraft wheelchair scooter drone" speed="3.65" length="1.44" shape="1014.78,830.25 1014.09,828.98"/>
    </edge>
    <edge id=":1042133819_11" function="internal">
        <lane id=":1042133819_11_0" index="0" disallow="pedestrian tram rail_urban rail rail_electric rail_fast ship container cable_car subway aircraft wheelchair scooter drone" speed="8.62" length="13.31" shape="1011.75,827.83 1011.60,827.71 1010.22,824.38 1010.62,820.26 1012.81,815.35"/>
    </edge>
    <edge id=":1042133819_12" function="internal">
        <lane id=":1042133819_12_0" index="0" disallow="pedestrian tram rail_urban rail rail_electric rail_fast ship container cable_car subway aircraft wheelchair scooter drone" speed="3.65" length="3.23" shape="1014.09,828.98 1014.11,828.09 1014.84,827.56 1016.27,827.42"/>
    </edge>
    <edge id=":1042133819_4" function="internal">
        <lane id=":1042133819_4_0" index="0" disallow="pedestrian tram rail_urban rail rail_electric rail_fast ship container cable_car subway aircraft wheelchair scooter drone" speed="6.45" length="9.14" shape="1015.57,816.96 1014.63,819.29 1014.68,821.34 1015.72,823.11 1017.76,824.58"/>
    </edge>
    <edge id=":1042133819_5" function="internal">
        <lane id=":1042133819_5_0" index="0" disallow="pedestrian tram rail_urban rail rail_electric rail_fast ship container cable_car subway aircraft wheelchair scooter drone" speed="8.76" length="16.93" shape="1015.57,816.96 1012.43,821.30 1009.11,823.81 1005.61,824.49 1001.94,823.33"/>
    </edge>
    <edge id=":1042133819_6" function="internal">
        <lane id=":1042133819_6_0" index="0" disallow="pedestrian tram rail_urban rail rail_electric rail_fast ship container cable_car subway aircraft wheelchair scooter drone" speed="3.65" length="4.67" shape="1015.57,816.96 1014.28,817.59 1013.38,817.54 1012.89,816.79 1012.81,815.35"/>
    </edge>
    <edge id=":1042133819_7" function="internal">
        <lane id=":1042133819_7_0" index="0" disallow="pedestrian tram rail_urban rail rail_electric rail_fast ship container cable_car subway aircraft wheelchair scooter drone" speed="6.62" length="9.23" shape="1005.03,817.73 1007.33,818.58 1009.39,818.47 1011.22,817.39 1012.81,815.35"/>
    </edge>
    <edge id=":1042133819_8" function="internal">
        <lane id=":1042133819_8_0" index="0" disallow="pedestrian tram rail_urban rail rail_electric rail_fast ship container cable_car subway aircraft wheelchair scooter drone" speed="27.78" length="14.49" shape="1005.03,817.73 1017.76,824.58"/>
        <lane id=":1042133819_8_1" index="1" disallow="pedestrian tram rail_urban rail rail_electric rail_fast ship container cable_car subway aircraft wheelchair scooter drone" speed="27.78" length="14.49" shape="1003.48,820.53 1016.27,827.42"/>
    </edge>
    <edge id=":1042133819_10" function="internal">
        <lane id=":1042133819_10_0" index="0" disallow="pedestrian tram rail_urban rail rail_electric rail_fast ship container cable_car subway aircraft wheelchair scooter drone" speed="3.65" length="1.44" shape="1003.48,820.53 1004.15,821.81"/>
    </edge>
    <edge id=":1042133819_13" function="internal">
        <lane id=":1042133819_13_0" index="0" disallow="pedestrian tram rail_urban rail rail_electric rail_fast ship container cable_car subway aircraft wheelchair scooter drone" speed="3.65" length="3.23" shape="1004.15,821.81 1004.11,822.70 1003.38,823.21 1001.94,823.33"/>
    </edge>
    <edge id=":1042133819_w0" function="walkingarea">
        <lane id=":1042133819_w0_0" index="0" allow="pedestrian" speed="2.78" length="14.69" width="1.50" shape="999.62,827.54 998.90,828.85 1011.84,835.82 1012.54,834.49"/>
    </edge>
    <edge id=":1042133819_w1" function="walkingarea">
        <lane id=":1042133819_w1_0" index="0" allow="pedestrian" speed="2.78" length="4.54" width="1.50" shape="1018.51,823.17 1019.21,821.84 1018.25,818.52 1016.96,817.76 1016.43,818.89 1016.22,819.92 1016.32,820.87 1016.74,821.73 1017.47,822.49"/>
    </edge>
    <edge id=":1042133819_w2" function="walkingarea">
        <lane id=":1042133819_w2_0" index="0" allow="pedestrian" speed="2.78" length="4.85" width="1.50" shape="1011.42,814.55 1010.13,813.79 1006.52,815.01 1005.80,816.33 1006.92,816.81 1007.97,816.98 1008.94,816.84 1009.84,816.39 1010.67,815.62"/>
    </edge>
    <edge id=":1042133904_0" function="internal">
        <lane id=":1042133904_0_0" index="0" disallow="pedestrian tram rail_urban rail rail_electric rail_fast ship container cable_car subway aircraft wheelchair scooter drone" speed="18.05" length="9.81" shape="1192.70,662.26 1189.85,671.65"/>
    </edge>
    <edge id=":1042133904_1" function="internal">
        <lane id=":1042133904_1_0" index="0" disallow="pedestrian tram rail_urban rail rail_electric rail_fast ship container cable_car subway aircraft wheelchair scooter drone" speed="6.18" length="7.95" shape="1189.63,661.36 1188.79,662.97 1187.40,663.91 1185.47,664.16 1183.00,663.74"/>
    </edge>
    <edge id=":1042133904_2" function="internal">