<?xml version="1.0" encoding="UTF-8"?>

<!-- generated on 2025-10-17 18:03:46 by Eclipse SUMO netedit Version 1.24.0
<neteditConfiguration xmlns:xsi="http://www.w3.org/2001/XMLSchema-instance" xsi:noNamespaceSchemaLocation="http://sumo.dlr.de/xsd/neteditConfiguration.xsd">

    <input>
        <additional-files value="K:\Kurt\THESIS\DRL_TrafficLight\Olivarez_traciSkeleton\additionals\detectors.add.xml"/>
        <sumo-net-file value="K:\Kurt\THESIS\DRL_TrafficLight\Olivarez_traciSkeleton\network\map.net.xml"/>
    </input>

    <output>
        <output-file value="K:\Kurt\THESIS\DRL_TrafficLight\Olivarez_traciSkeleton\network\map.net.xml"/>
    </output>

    <processing>
        <geometry.min-radius.fix.railways value="false"/>
        <geometry.avoid-overlap value="false"/>
        <geometry.max-grade.fix value="false"/>
        <offset.disable-normalization value="true"/>
        <lefthand value="0"/>
    </processing>

    <junctions>
        <no-internal-links value="false"/>
        <no-turnarounds value="true"/>
        <junctions.corner-detail value="5"/>
        <junctions.limit-turn-speed value="5.50"/>
        <rectangular-lane-cut value="0"/>
    </junctions>

    <pedestrian>
        <walkingareas value="1"/>
    </pedestrian>

</neteditConfiguration>
-->

<net version="1.20" junctionCornerDetail="5" walkingareas="true" limitTurnSpeed="5.50" avoidOverlap="0" xmlns:xsi="http://www.w3.org/2001/XMLSchema-instance" xsi:noNamespaceSchemaLocation="http://sumo.dlr.de/xsd/net_file.xsd">

    <location netOffset="-291686.36,-1584676.59" convBoundary="0.00,0.00,2485.77,1394.21" origBoundary="121.054103,14.316008,121.098550,14.363847" projParameter="+proj=utm +zone=51 +ellps=WGS84 +datum=WGS84 +units=m +no_defs"/>

    <type id="highway.footway" priority="1" numLanes="1" speed="2.78" allow="pedestrian" oneway="1" width="2.00"/>
    <type id="highway.path" priority="1" numLanes="1" speed="5.56" allow="pedestrian bicycle" oneway="0" width="2.00"/>
    <type id="highway.residential" priority="3" numLanes="1" speed="13.89" disallow="tram rail_urban rail rail_electric rail_fast ship container cable_car subway aircraft wheelchair scooter drone" oneway="0"/>
    <type id="highway.secondary" priority="11" numLanes="1" speed="27.78" disallow="tram rail_urban rail rail_electric rail_fast ship container cable_car subway aircraft wheelchair scooter drone" oneway="0"/>
    <type id="highway.secondary_link" priority="6" numLanes="1" speed="22.22" disallow="tram rail_urban rail rail_electric rail_fast ship container cable_car subway aircraft wheelchair scooter drone" oneway="0"/>
    <type id="highway.service" priority="1" numLanes="1" speed="5.56" allow="pedestrian delivery bicycle" oneway="0"/>
    <type id="highway.steps" priority="1" numLanes="1" speed="1.39" allow="pedestrian" oneway="1" width="2.00"/>
    <type id="highway.tertiary" priority="10" numLanes="1" speed="22.22" disallow="tram rail_urban rail rail_electric rail_fast ship container cable_car subway aircraft wheelchair scooter drone" oneway="0"/>
    <type id="highway.trunk" priority="13" numLanes="2" speed="27.78" disallow="pedestrian bicycle tram rail_urban rail rail_electric rail_fast ship container cable_car subway aircraft wheelchair scooter drone" oneway="0"/>
    <type id="highway.unclassified" priority="4" numLanes="1" speed="13.89" disallow="tram rail_urban rail rail_electric rail_fast ship container cable_car subway aircraft wheelchair scooter drone" oneway="0"/>

    <edge id=":10055679231_0" function="internal">
        <lane id=":10055679231_0_0" index="0" allow="pedestrian delivery bicycle" speed="3.65" length="4.67" shape="1831.50,949.88 1832.86,949.41 1833.74,949.58 1834.13,950.38 1834.04,951.82"/>
    </edge>
    <edge id=":10055679234_0" function="internal">
        <lane id=":10055679234_0_0" index="0" allow="delivery bicycle" speed="5.36" length="5.86" shape="1802.87,947.79 1801.29,946.89 1799.91,946.62 1798.72,946.97 1797.72,947.94"/>
    </edge>
    <edge id=":10055679234_1" function="internal">
        <lane id=":10055679234_1_0" index="0" allow="delivery bicycle" speed="6.95" length="10.98" shape="1802.87,947.79 1800.49,945.59 1799.31,943.29 1799.32,940.90 1800.52,938.40"/>
    </edge>
    <edge id=":10055679234_2" function="internal">
        <lane id=":10055679234_2_0" index="0" allow="pedestrian delivery bicycle" speed="3.65" length="4.67" shape="1802.87,947.79 1802.37,946.44 1802.51,945.56 1803.30,945.14 1804.75,945.20"/>
    </edge>
    <edge id=":10055679234_3" function="internal">
        <lane id=":10055679234_3_0" index="0" allow="delivery bicycle" speed="5.42" length="5.88" shape="1803.14,940.25 1802.57,941.50 1802.65,942.74 1803.38,943.97 1804.75,945.20"/>
    </edge>
    <edge id=":10055679234_4" function="internal">
        <lane id=":10055679234_4_0" index="0" disallow="pedestrian tram rail_urban rail rail_electric rail_fast ship container cable_car subway aircraft wheelchair scooter drone" speed="8.33" length="9.41" shape="1803.14,940.25 1797.72,947.94"/>
    </edge>
    <edge id=":10055679234_5" function="internal">
        <lane id=":10055679234_5_0" index="0" disallow="pedestrian tram rail_urban rail rail_electric rail_fast ship container cable_car subway aircraft wheelchair scooter drone" speed="8.33" length="9.42" shape="1795.10,946.10 1800.52,938.40"/>
    </edge>
    <edge id=":10055679234_6" function="internal">
        <lane id=":10055679234_6_0" index="0" allow="delivery bicycle" speed="6.95" length="3.13" shape="1795.10,946.10 1797.08,944.08 1797.36,943.98"/>
    </edge>
    <edge id=":10055679234_7" function="internal">
        <lane id=":10055679234_7_0" index="0" allow="delivery bicycle" speed="6.95" length="7.94" shape="1797.36,943.98 1799.35,943.26 1801.90,943.63 1804.75,945.20"/>
    </edge>
    <edge id=":10055679234_w0" function="walkingarea">
        <lane id=":10055679234_w0_0" index="0" allow="pedestrian" speed="2.78" length="5.55" width="3.20" shape="1799.03,948.86 1799.85,949.43 1801.93,949.09 1803.81,946.49 1805.68,943.90 1805.26,941.74 1804.44,941.17"/>
    </edge>
    <edge id=":10055679234_w1" function="walkingarea">
        <lane id=":10055679234_w1_0" index="0" allow="pedestrian" speed="2.78" length="9.42" width="1.00" shape="1799.22,937.48 1798.40,936.90 1793.05,944.52 1793.72,945.27"/>
    </edge>
    <edge id=":10055814157_0" function="internal">
        <lane id=":10055814157_0_0" index="0" allow="pedestrian delivery bicycle" speed="3.65" length="4.67" shape="1879.33,994.65 1880.39,993.67 1881.26,993.46 1881.95,994.04 1882.45,995.39"/>
    </edge>
    <edge id=":10239200983_0" function="internal">
        <lane id=":10239200983_0_0" index="0" disallow="pedestrian bicycle tram rail_urban rail rail_electric rail_fast ship container cable_car subway aircraft wheelchair scooter drone" speed="27.78" length="8.13" shape="1454.24,754.41 1453.13,752.43 1452.37,751.05 1451.45,749.81 1449.83,748.25"/>
        <lane id=":10239200983_0_1" index="1" disallow="pedestrian bicycle tram rail_urban rail rail_electric rail_fast ship container cable_car subway aircraft wheelchair scooter drone" speed="27.78" length="8.13" shape="1456.98,752.76 1455.72,750.53 1454.84,748.99 1453.78,747.60 1451.94,745.84"/>
    </edge>
    <edge id=":10239200983_2" function="internal">
        <lane id=":10239200983_2_0" index="0" allow="bus" speed="6.97" length="9.90" shape="1463.18,740.62 1461.55,742.30 1460.89,744.34 1461.20,746.72 1462.47,749.46"/>
    </edge>
    <edge id=":10239200983_3" function="internal">
        <lane id=":10239200983_3_0" index="0" allow="bus" speed="8.33" length="12.73" shape="1463.18,740.62 1458.92,743.49 1455.63,745.31 1453.31,746.10 1451.94,745.84"/>
    </edge>
    <edge id=":10239200983_4" function="internal">
        <lane id=":10239200983_4_0" index="0" disallow="pedestrian bicycle tram rail_urban rail rail_electric rail_fast ship container cable_car subway aircraft wheelchair scooter drone" speed="27.78" length="10.11" shape="1456.16,741.03 1458.44,743.18 1459.78,744.86 1460.89,746.73 1462.47,749.46"/>
        <lane id=":10239200983_4_1" index="1" disallow="pedestrian bicycle tram rail_urban rail rail_electric rail_fast ship container cable_car subway aircraft wheelchair scooter drone" speed="27.78" length="10.11" shape="1454.05,743.44 1456.11,745.39 1457.31,746.92 1458.31,748.63 1459.73,751.11"/>
    </edge>
    <edge id=":10239200983_w0" function="walkingarea">
        <lane id=":10239200983_w0_0" index="0" allow="pedestrian" speed="2.78" length="5.20" width="3.20" shape="1448.78,749.45 1448.12,750.21 1447.71,754.46 1450.60,755.82 1452.02,755.75 1452.87,755.24 1452.12,753.92 1451.59,752.91 1451.14,752.08 1450.62,751.32 1449.88,750.48"/>
    </edge>
    <edge id=":1070717397_0" function="internal">
        <lane id=":1070717397_0_0" index="0" disallow="pedestrian tram rail_urban rail rail_electric rail_fast ship container cable_car subway aircraft wheelchair scooter drone" speed="8.33" length="9.28" shape="1951.24,964.29 1949.08,962.59 1947.71,961.27 1946.31,960.01 1944.02,958.50"/>
    </edge>
    <edge id=":1070717397_1" function="internal">
        <lane id=":1070717397_1_0" index="0" disallow="pedestrian tram rail_urban rail rail_electric rail_fast ship container cable_car subway aircraft wheelchair scooter drone" speed="5.33" length="10.85" shape="1951.24,964.29 1949.74,962.03 1950.26,959.57 1952.25,957.76 1955.17,957.46"/>
    </edge>
    <edge id=":1070717397_2" function="internal">
        <lane id=":1070717397_2_0" index="0" disallow="pedestrian tram rail_urban rail rail_electric rail_fast ship container cable_car subway aircraft wheelchair scooter drone" speed="3.65" length="4.67" shape="1951.24,964.29 1950.72,962.95 1950.85,962.06 1951.64,961.64 1953.08,961.68"/>
    </edge>
    <edge id=":1070717397_3" function="internal">
        <lane id=":1070717397_3_0" index="0" disallow="pedestrian tram rail_urban rail rail_electric rail_fast ship container cable_car subway aircraft wheelchair scooter drone" speed="15.27" length="9.82" shape="1945.63,955.73 1948.22,956.88 1950.20,957.10 1952.27,957.08 1955.17,957.46"/>
    </edge>
    <edge id=":1070717397_4" function="internal">
        <lane id=":1070717397_4_0" index="0" disallow="pedestrian tram rail_urban rail rail_electric rail_fast ship container cable_car subway aircraft wheelchair scooter drone" speed="8.33" length="9.55" shape="1945.63,955.73 1947.98,957.28 1949.44,958.57 1950.85,959.93 1953.08,961.68"/>
    </edge>
    <edge id=":1070717397_5" function="internal">
        <lane id=":1070717397_5_0" index="0" disallow="pedestrian tram rail_urban rail rail_electric rail_fast ship container cable_car subway aircraft wheelchair scooter drone" speed="3.65" length="4.67" shape="1945.63,955.73 1946.26,957.03 1946.21,957.92 1945.46,958.41 1944.02,958.50"/>
    </edge>
    <edge id=":1070717397_w0" function="walkingarea">
        <lane id=":1070717397_w0_0" index="0" allow="pedestrian" speed="2.78" length="9.07" width="1.00" shape="1943.22,959.88 1942.72,960.75 1949.74,966.42 1950.32,965.60 1948.77,964.43 1947.70,963.46 1946.85,962.62 1945.98,961.80 1944.86,960.92"/>
    </edge>
    <edge id=":1070717397_w1" function="walkingarea">
        <lane id=":1070717397_w1_0" index="0" allow="pedestrian" speed="2.78" length="7.19" width="3.20" shape="1954.00,960.37 1954.58,959.55 1954.81,959.02 1955.52,955.90 1946.93,953.48 1946.43,954.35 1948.17,955.44 1949.37,956.37 1950.30,957.22 1951.21,958.11 1952.36,959.12"/>
    </edge>
    <edge id=":1070717512_0" function="internal">
        <lane id=":1070717512_0_0" index="0" disallow="pedestrian tram rail_urban rail rail_electric rail_fast ship container cable_car subway aircraft wheelchair scooter drone" speed="8.33" length="14.59" shape="2063.52,637.03 2059.92,651.16"/>
    </edge>
    <edge id=":1070717512_1" function="internal">
        <lane id=":1070717512_1_0" index="0" disallow="pedestrian tram rail_urban rail rail_electric rail_fast ship container cable_car subway aircraft wheelchair scooter drone" speed="7.79" length="4.29" shape="2063.52,637.03 2061.90,640.99"/>
    </edge>
    <edge id=":1070717512_2" function="internal">
        <lane id=":1070717512_2_0" index="0" disallow="pedestrian tram rail_urban rail rail_electric rail_fast ship container cable_car subway aircraft wheelchair scooter drone" speed="3.65" length="1.44" shape="2063.52,637.03 2062.45,638.00"/>
    </edge>
    <edge id=":1070717512_9" function="internal">
        <lane id=":1070717512_9_0" index="0" disallow="pedestrian tram rail_urban rail rail_electric rail_fast ship container cable_car subway aircraft wheelchair scooter drone" speed="7.79" length="10.94" shape="2061.90,640.99 2059.44,643.24 2056.16,643.77 2052.04,642.58"/>
    </edge>
    <edge id=":1070717512_10" function="internal">
        <lane id=":1070717512_10_0" index="0" disallow="pedestrian tram rail_urban rail rail_electric rail_fast ship container cable_car subway aircraft wheelchair scooter drone" speed="3.65" length="3.23" shape="2062.45,638.00 2061.58,638.19 2060.90,637.61 2060.42,636.25"/>
    </edge>
    <edge id=":1070717512_3" function="internal">
        <lane id=":1070717512_3_0" index="0" disallow="pedestrian tram rail_urban rail rail_electric rail_fast ship container cable_car subway aircraft wheelchair scooter drone" speed="6.24" length="9.36" shape="2053.36,639.66 2055.89,640.39 2057.91,640.07 2059.42,638.69 2060.42,636.25"/>
    </edge>
    <edge id=":1070717512_4" function="internal">
        <lane id=":1070717512_4_0" index="0" disallow="pedestrian tram rail_urban rail rail_electric rail_fast ship container cable_car subway aircraft wheelchair scooter drone" speed="8.65" length="14.58" shape="2053.36,639.66 2056.98,641.83 2059.27,644.47 2060.25,647.58 2059.92,651.16"/>
    </edge>
    <edge id=":1070717512_5" function="internal">
        <lane id=":1070717512_5_0" index="0" disallow="pedestrian tram rail_urban rail rail_electric rail_fast ship container cable_car subway aircraft wheelchair scooter drone" speed="3.65" length="4.67" shape="2053.36,639.66 2054.13,640.89 2054.16,641.78 2053.47,642.34 2052.04,642.58"/>
    </edge>
    <edge id=":1070717512_6" function="internal">
        <lane id=":1070717512_6_0" index="0" disallow="pedestrian tram rail_urban rail rail_electric rail_fast ship container cable_car subway aircraft wheelchair scooter drone" speed="7.27" length="10.03" shape="2056.82,650.36 2057.01,647.99 2056.28,645.90 2054.62,644.10 2052.04,642.58"/>
    </edge>
    <edge id=":1070717512_7" function="internal">
        <lane id=":1070717512_7_0" index="0" disallow="pedestrian tram rail_urban rail rail_electric rail_fast ship container cable_car subway aircraft wheelchair scooter drone" speed="8.33" length="14.56" shape="2056.82,650.36 2060.42,636.25"/>
    </edge>
    <edge id=":1070717512_8" function="internal">
        <lane id=":1070717512_8_0" index="0" disallow="pedestrian tram rail_urban rail rail_electric rail_fast ship container cable_car subway aircraft wheelchair scooter drone" speed="3.65" length="1.44" shape="2056.82,650.36 2057.90,649.40"/>
    </edge>
    <edge id=":1070717512_11" function="internal">
        <lane id=":1070717512_11_0" index="0" disallow="pedestrian tram rail_urban rail rail_electric rail_fast ship container cable_car subway aircraft wheelchair scooter drone" speed="3.65" length="3.23" shape="2057.90,649.40 2058.77,649.21 2059.44,649.80 2059.92,651.16"/>
    </edge>
    <edge id=":1070717512_w0" function="walkingarea">
        <lane id=":1070717512_w0_0" index="0" allow="pedestrian" speed="2.78" length="14.61" width="1.00" shape="2061.46,651.57 2062.43,651.82 2066.04,637.66 2065.07,637.41"/>
    </edge>
    <edge id=":1070717512_w1" function="walkingarea">
        <lane id=":1070717512_w1_0" index="0" allow="pedestrian" speed="2.78" length="4.61" width="1.00" shape="2058.86,635.86 2057.89,635.62 2054.43,637.29 2054.02,638.20 2055.22,638.62 2056.26,638.71 2057.14,638.48 2057.87,637.93 2058.45,637.06"/>
    </edge>
    <edge id=":1070717512_w2" function="walkingarea">
        <lane id=":1070717512_w2_0" index="0" allow="pedestrian" speed="2.78" length="6.44" width="1.00" shape="2051.38,644.03 2050.97,644.95 2054.30,649.70 2055.27,649.95 2055.43,648.75 2055.27,647.64 2054.78,646.61 2053.97,645.67 2052.84,644.81"/>
    </edge>
    <edge id=":1070717682_0" function="internal">
        <lane id=":1070717682_0_0" index="0" disallow="pedestrian bicycle tram rail_urban rail rail_electric rail_fast ship container cable_car subway aircraft wheelchair scooter drone" speed="7.79" length="7.81" shape="1601.65,690.04 1600.55,691.04 1599.76,692.55 1599.27,694.57 1599.09,697.10"/>
    </edge>
    <edge id=":1070717682_1" function="internal">
        <lane id=":1070717682_1_0" index="0" disallow="pedestrian bicycle tram rail_urban rail rail_electric rail_fast ship container cable_car subway aircraft wheelchair scooter drone" speed="27.78" length="7.94" shape="1601.65,690.04 1594.88,694.14"/>
        <lane id=":1070717682_1_1" index="1" disallow="pedestrian bicycle tram rail_urban rail rail_electric rail_fast ship container cable_car subway aircraft wheelchair scooter drone" speed="27.78" length="7.94" shape="1600.02,687.29 1593.22,691.40"/>
    </edge>
    <edge id=":1070717682_3" function="internal">
        <lane id=":1070717682_3_0" index="0" disallow="pedestrian bicycle tram rail_urban rail rail_electric rail_fast ship container cable_car subway aircraft wheelchair scooter drone" speed="3.65" length="1.44" shape="1600.02,687.29 1598.58,687.21"/>
    </edge>
    <edge id=":1070717682_8" function="internal">
        <lane id=":1070717682_8_0" index="0" disallow="pedestrian bicycle tram rail_urban rail rail_electric rail_fast ship container cable_car subway aircraft wheelchair scooter drone" speed="3.65" length="3.23" shape="1598.58,687.21 1597.83,686.72 1597.77,685.83 1598.40,684.53"/>
    </edge>
    <edge id=":1070717682_4" function="internal">
        <lane id=":1070717682_4_0" index="0" disallow="pedestrian bicycle tram rail_urban rail rail_electric rail_fast ship container cable_car subway aircraft wheelchair scooter drone" speed="27.78" length="8.00" shape="1589.91,685.92 1596.77,681.78"/>
        <lane id=":1070717682_4_1" index="1" disallow="pedestrian bicycle tram rail_urban rail rail_electric rail_fast ship container cable_car subway aircraft wheelchair scooter drone" speed="27.78" length="8.00" shape="1591.57,688.66 1598.40,684.53"/>
    </edge>
    <edge id=":1070717682_6" function="internal">
        <lane id=":1070717682_6_0" index="0" disallow="pedestrian bicycle tram rail_urban rail rail_electric rail_fast ship container cable_car subway aircraft wheelchair scooter drone" speed="6.99" length="3.32" shape="1591.57,688.66 1594.68,687.53"/>
    </edge>
    <edge id=":1070717682_7" function="internal">
        <lane id=":1070717682_7_0" index="0" disallow="pedestrian bicycle tram rail_urban rail rail_electric rail_fast ship container cable_car subway aircraft wheelchair scooter drone" speed="3.65" length="1.44" shape="1591.57,688.66 1593.01,688.73"/>
    </edge>
    <edge id=":1070717682_9" function="internal">
        <lane id=":1070717682_9_0" index="0" disallow="pedestrian bicycle tram rail_urban rail rail_electric rail_fast ship container cable_car subway aircraft wheelchair scooter drone" speed="6.99" length="11.77" shape="1594.68,687.53 1594.91,687.45 1597.28,688.46 1598.67,691.67 1599.09,697.10"/>
    </edge>
    <edge id=":1070717682_10" function="internal">
        <lane id=":1070717682_10_0" index="0" disallow="pedestrian bicycle tram rail_urban rail rail_electric rail_fast ship container cable_car subway aircraft wheelchair scooter drone" speed="3.65" length="3.23" shape="1593.01,688.73 1593.76,689.20 1593.83,690.09 1593.22,691.40"/>
    </edge>
    <edge id=":1070717682_w0" function="walkingarea">
        <lane id=":1070717682_w0_0" index="0" allow="pedestrian" speed="2.78" length="5.50" width="1.00" shape="1600.69,697.12 1601.69,697.13 1602.98,692.28 1602.47,691.42 1601.94,691.86 1601.50,692.51 1601.16,693.36 1600.91,694.41 1600.75,695.66"/>
    </edge>
    <edge id=":1070717682_w1" function="walkingarea">
        <lane id=":1070717682_w1_0" index="0" allow="pedestrian" speed="2.78" length="8.03" width="1.00" shape="1595.95,680.40 1595.44,679.54 1588.57,683.70 1589.08,684.55"/>
    </edge>
    <edge id=":1070717719_0" function="internal">
        <lane id=":1070717719_0_0" index="0" disallow="pedestrian tram rail_urban rail rail_electric rail_fast ship container cable_car subway aircraft wheelchair scooter drone" speed="8.33" length="8.24" shape="1983.51,948.15 1981.01,956.00"/>
    </edge>
    <edge id=":1070717719_1" function="internal">
        <lane id=":1070717719_1_0" index="0" disallow="pedestrian tram rail_urban rail rail_electric rail_fast ship container cable_car subway aircraft wheelchair scooter drone" speed="3.65" length="1.44" shape="1983.51,948.15 1982.41,949.09"/>
    </edge>
    <edge id=":1070717719_6" function="internal">
        <lane id=":1070717719_6_0" index="0" disallow="pedestrian tram rail_urban rail rail_electric rail_fast ship container cable_car subway aircraft wheelchair scooter drone" speed="3.65" length="3.23" shape="1982.41,949.09 1981.53,949.26 1980.87,948.66 1980.43,947.29"/>
    </edge>
    <edge id=":1070717719_2" function="internal">
        <lane id=":1070717719_2_0" index="0" disallow="pedestrian tram rail_urban rail rail_electric rail_fast ship container cable_car subway aircraft wheelchair scooter drone" speed="10.32" length="8.70" shape="1973.80,952.28 1976.16,951.12 1978.01,950.45 1979.41,949.44 1980.43,947.29"/>
    </edge>
    <edge id=":1070717719_3" function="internal">
        <lane id=":1070717719_3_0" index="0" disallow="pedestrian tram rail_urban rail rail_electric rail_fast ship container cable_car subway aircraft wheelchair scooter drone" speed="6.30" length="13.99" shape="1973.80,952.28 1978.18,950.02 1980.84,949.88 1981.78,951.88 1981.01,956.00"/>
    </edge>
    <edge id=":1070717719_4" function="internal">
        <lane id=":1070717719_4_0" index="0" disallow="pedestrian tram rail_urban rail rail_electric rail_fast ship container cable_car subway aircraft wheelchair scooter drone" speed="8.33" length="8.14" shape="1977.95,955.04 1980.43,947.29"/>
    </edge>
    <edge id=":1070717719_5" function="internal">
        <lane id=":1070717719_5_0" index="0" disallow="pedestrian tram rail_urban rail rail_electric rail_fast ship container cable_car subway aircraft wheelchair scooter drone" speed="3.65" length="1.44" shape="1977.95,955.04 1979.08,954.14"/>
    </edge>
    <edge id=":1070717719_7" function="internal">
        <lane id=":1070717719_7_0" index="0" disallow="pedestrian tram rail_urban rail rail_electric rail_fast ship container cable_car subway aircraft wheelchair scooter drone" speed="3.65" length="3.23" shape="1979.08,954.14 1979.96,953.99 1980.60,954.62 1981.01,956.00"/>
    </edge>
    <edge id=":1070717719_w0" function="walkingarea">
        <lane id=":1070717719_w0_0" index="0" allow="pedestrian" speed="2.78" length="8.30" width="1.00" shape="1982.53,956.48 1983.49,956.78 1986.01,948.86 1985.05,948.59"/>
    </edge>
    <edge id=":1070717719_w1" function="walkingarea">
        <lane id=":1070717719_w1_0" index="0" allow="pedestrian" speed="2.78" length="6.11" width="3.20" shape="1978.89,946.85 1977.92,946.58 1972.94,950.93 1974.66,953.63 1975.47,954.26 1976.43,954.56"/>
    </edge>
    <edge id=":1070717739_0" function="internal">
        <lane id=":1070717739_0_0" index="0" disallow="pedestrian tram rail_urban rail rail_electric rail_fast ship container cable_car subway aircraft wheelchair scooter drone" speed="8.33" length="11.75" shape="1728.66,998.89 1726.06,1001.13 1724.59,1003.02 1723.59,1005.24 1722.36,1008.50"/>
    </edge>
    <edge id=":1070717739_1" function="internal">
        <lane id=":1070717739_1_0" index="0" disallow="pedestrian tram rail_urban rail rail_electric rail_fast ship container cable_car subway aircraft wheelchair scooter drone" speed="8.33" length="13.37" shape="1728.66,998.89 1726.11,1000.34 1723.13,1001.06 1719.70,1001.05 1715.83,1000.30"/>
    </edge>
    <edge id=":1070717739_2" function="internal">
        <lane id=":1070717739_2_0" index="0" disallow="pedestrian tram rail_urban rail rail_electric rail_fast ship container cable_car subway aircraft wheelchair scooter drone" speed="3.65" length="4.67" shape="1728.66,998.89 1727.22,999.00 1726.41,998.61 1726.24,997.74 1726.69,996.37"/>
    </edge>
    <edge id=":1070717739_3" function="internal">
        <lane id=":1070717739_3_0" index="0" disallow="pedestrian tram rail_urban rail rail_electric rail_fast ship container cable_car subway aircraft wheelchair scooter drone" speed="8.33" length="10.39" shape="1716.68,997.21 1719.79,997.84 1722.49,997.91 1724.79,997.42 1726.69,996.37"/>
    </edge>
    <edge id=":1070717739_4" function="internal">
        <lane id=":1070717739_4_0" index="0" disallow="pedestrian tram rail_urban rail rail_electric rail_fast ship container cable_car subway aircraft wheelchair scooter drone" speed="7.87" length="14.78" shape="1716.68,997.21 1720.45,998.85 1722.65,1001.28 1723.29,1004.50 1722.36,1008.50"/>
    </edge>
    <edge id=":1070717739_5" function="internal">
        <lane id=":1070717739_5_0" index="0" disallow="pedestrian tram rail_urban rail rail_electric rail_fast ship container cable_car subway aircraft wheelchair scooter drone" speed="3.65" length="4.67" shape="1716.68,997.21 1717.62,998.30 1717.80,999.18 1717.20,999.85 1715.83,1000.30"/>
    </edge>
    <edge id=":1070717739_6" function="internal">
        <lane id=":1070717739_6_0" index="0" disallow="pedestrian tram rail_urban rail rail_electric rail_fast ship container cable_car subway aircraft wheelchair scooter drone" speed="6.34" length="9.22" shape="1719.38,1007.34 1719.96,1004.84 1719.56,1002.84 1718.19,1001.32 1715.83,1000.30"/>
    </edge>
    <edge id=":1070717739_7" function="internal">
        <lane id=":1070717739_7_0" index="0" disallow="pedestrian tram rail_urban rail rail_electric rail_fast ship container cable_car subway aircraft wheelchair scooter drone" speed="8.33" length="13.47" shape="1719.38,1007.34 1720.80,1003.61 1721.98,1001.08 1723.69,998.93 1726.69,996.37"/>
    </edge>
    <edge id=":1070717739_8" function="internal">
        <lane id=":1070717739_8_0" index="0" disallow="pedestrian tram rail_urban rail rail_electric rail_fast ship container cable_car subway aircraft wheelchair scooter drone" speed="3.65" length="4.67" shape="1719.38,1007.34 1720.56,1006.51 1721.45,1006.43 1722.05,1007.09 1722.36,1008.50"/>
    </edge>
    <edge id=":1070717739_w0" function="walkingarea">
        <lane id=":1070717739_w0_0" index="0" allow="pedestrian" speed="2.78" length="10.39" width="1.00" shape="1723.85,1009.08 1724.78,1009.45 1730.26,1000.93 1729.65,1000.15 1727.90,1001.60 1726.71,1002.82 1725.90,1003.99 1725.28,1005.29 1724.66,1006.93"/>
    </edge>
    <edge id=":1070717739_w1" function="walkingarea">
        <lane id=":1070717739_w1_0" index="0" allow="pedestrian" speed="2.78" length="8.17" width="1.00" shape="1725.70,995.11 1725.08,994.32 1717.36,994.71 1717.10,995.67 1718.96,996.10 1720.65,996.32 1722.17,996.33 1723.52,996.13 1724.69,995.72"/>
    </edge>
    <edge id=":1070717739_w2" function="walkingarea">
        <lane id=":1070717739_w2_0" index="0" allow="pedestrian" speed="2.78" length="4.76" width="1.00" shape="1715.41,1001.84 1715.15,1002.81 1716.95,1006.40 1717.88,1006.76 1718.23,1005.56 1718.27,1004.51 1718.01,1003.62 1717.45,1002.87 1716.58,1002.28"/>
    </edge>
    <edge id=":1070717928_0" function="internal">
        <lane id=":1070717928_0_0" index="0" disallow="pedestrian tram rail_urban rail rail_electric rail_fast ship container cable_car subway aircraft wheelchair scooter drone" speed="6.60" length="9.10" shape="2031.48,791.69 2028.98,791.46 2026.99,792.06 2025.51,793.48 2024.54,795.74"/>
    </edge>
    <edge id=":1070717928_1" function="internal">
        <lane id=":1070717928_1_0" index="0" disallow="pedestrian tram rail_urban rail rail_electric rail_fast ship container cable_car subway aircraft wheelchair scooter drone" speed="8.00" length="14.21" shape="2031.48,791.69 2027.85,790.28 2025.55,788.05 2024.56,784.99 2024.91,781.11"/>
    </edge>
    <edge id=":1070717928_2" function="internal">
        <lane id=":1070717928_2_0" index="0" disallow="pedestrian tram rail_urban rail rail_electric rail_fast ship container cable_car subway aircraft wheelchair scooter drone" speed="3.65" length="4.67" shape="2031.48,791.69 2030.50,790.64 2030.29,789.77 2030.86,789.08 2032.21,788.57"/>
    </edge>
    <edge id=":1070717928_3" function="internal">
        <lane id=":1070717928_3_0" index="0" disallow="pedestrian tram rail_urban rail rail_electric rail_fast ship container cable_car subway aircraft wheelchair scooter drone" speed="6.50" length="9.04" shape="2028.02,781.84 2027.80,784.31 2028.43,786.25 2029.90,787.67 2032.21,788.57"/>
    </edge>
    <edge id=":1070717928_4" function="internal">
        <lane id=":1070717928_4_0" index="0" disallow="pedestrian tram rail_urban rail rail_electric rail_fast ship container cable_car subway aircraft wheelchair scooter drone" speed="8.33" length="14.32" shape="2028.02,781.84 2024.54,795.74"/>
    </edge>
    <edge id=":1070717928_5" function="internal">
        <lane id=":1070717928_5_0" index="0" disallow="pedestrian tram rail_urban rail rail_electric rail_fast ship container cable_car subway aircraft wheelchair scooter drone" speed="3.65" length="1.44" shape="2028.02,781.84 2026.97,782.83"/>
    </edge>
    <edge id=":1070717928_9" function="internal">