<?xml version="1.0" encoding="UTF-8"?>

<!-- generated on 2025-10-07 21:10:13 by Eclipse SUMO netedit Version 1.24.0
-->

<additional xmlns:xsi="http://www.w3.org/2001/XMLSchema-instance" xsi:noNamespaceSchemaLocation="http://sumo.dlr.de/xsd/additional_file.xsd">
    <!-- Detectors -->
    <laneAreaDetector id="e2_25" lane="1119486610#1_0" pos="15.00" length="5.00" period="300.00" file="e2_25.xml" friendlyPos="1"/>
    <laneAreaDetector id="e2_26" lane="777627649#1_0" pos="30.00" length="5.00" period="300.00" file="e2_26.xml" friendlyPos="1"/>
</additional>
