<?xml version="1.0" encoding="UTF-8"?>

<!-- generated on 2025-09-20 14:35:04 by Eclipse SUMO netedit Version 1.24.0
<neteditConfiguration xmlns:xsi="http://www.w3.org/2001/XMLSchema-instance" xsi:noNamespaceSchemaLocation="http://sumo.dlr.de/xsd/neteditConfiguration.xsd">

    <input>
        <sumocfg-file value="map.sumocfg"/>
        <additional-files value="map.poly.xml"/>
        <sumo-net-file value="test.net.xml"/>
    </input>

    <output>
        <output-file value="test.net.xml"/>
    </output>

    <processing>
        <geometry.min-radius.fix.railways value="false"/>
        <geometry.avoid-overlap value="false"/>
        <geometry.max-grade.fix value="false"/>
        <offset.disable-normalization value="true"/>
        <lefthand value="0"/>
    </processing>

    <junctions>
        <no-turnarounds value="true"/>
        <junctions.corner-detail value="5"/>
        <junctions.limit-turn-speed value="5.50"/>
        <rectangular-lane-cut value="0"/>
    </junctions>

    <pedestrian>
        <walkingareas value="0"/>
    </pedestrian>

    <netedit>
        <ignore.routeelements value="false"/>
    </netedit>

</neteditConfiguration>
-->

<net version="1.20" junctionCornerDetail="5" limitTurnSpeed="5.50" avoidOverlap="0" xmlns:xsi="http://www.w3.org/2001/XMLSchema-instance" xsi:noNamespaceSchemaLocation="http://sumo.dlr.de/xsd/net_file.xsd">

    <location netOffset="-291686.36,-1584676.59" convBoundary="0.00,0.00,2485.77,1394.21" origBoundary="121.054103,14.316008,121.098550,14.363847" projParameter="+proj=utm +zone=51 +ellps=WGS84 +datum=WGS84 +units=m +no_defs"/>

    <type id="highway.footway" priority="1" numLanes="1" speed="2.78" allow="pedestrian" oneway="1" width="2.00"/>
    <type id="highway.path" priority="1" numLanes="1" speed="5.56" allow="pedestrian bicycle" oneway="0" width="2.00"/>
    <type id="highway.residential" priority="3" numLanes="1" speed="13.89" disallow="tram rail_urban rail rail_electric rail_fast ship container cable_car subway aircraft wheelchair scooter drone" oneway="0"/>
    <type id="highway.secondary" priority="11" numLanes="1" speed="27.78" disallow="tram rail_urban rail rail_electric rail_fast ship container cable_car subway aircraft wheelchair scooter drone" oneway="0"/>
    <type id="highway.secondary_link" priority="6" numLanes="1" speed="22.22" disallow="tram rail_urban rail rail_electric rail_fast ship container cable_car subway aircraft wheelchair scooter drone" oneway="0"/>
    <type id="highway.service" priority="1" numLanes="1" speed="5.56" allow="pedestrian delivery bicycle" oneway="0"/>
    <type id="highway.steps" priority="1" numLanes="1" speed="1.39" allow="pedestrian" oneway="1" width="2.00"/>
    <type id="highway.tertiary" priority="10" numLanes="1" speed="22.22" disallow="tram rail_urban rail rail_electric rail_fast ship container cable_car subway aircraft wheelchair scooter drone" oneway="0"/>
    <type id="highway.trunk" priority="13" numLanes="2" speed="27.78" disallow="pedestrian bicycle tram rail_urban rail rail_electric rail_fast ship container cable_car subway aircraft wheelchair scooter drone" oneway="0"/>
    <type id="highway.unclassified" priority="4" numLanes="1" speed="13.89" disallow="tram rail_urban rail rail_electric rail_fast ship container cable_car subway aircraft wheelchair scooter drone" oneway="0"/>

    <edge id=":10055679231_0" function="internal">
        <lane id=":10055679231_0_0" index="0" allow="pedestrian delivery bicycle" speed="3.65" length="4.67" shape="1831.50,949.88 1832.86,949.41 1833.74,949.58 1834.13,950.38 1834.04,951.82"/>
    </edge>
    <edge id=":10055679234_0" function="internal">
        <lane id=":10055679234_0_0" index="0" allow="pedestrian delivery bicycle" speed="5.02" length="5.02" shape="1802.06,947.20 1800.84,946.56 1799.71,946.47 1798.68,946.92 1797.73,947.93"/>
    </edge>
    <edge id=":10055679234_1" function="internal">
        <lane id=":10055679234_1_0" index="0" allow="pedestrian delivery bicycle" speed="6.90" length="10.17" shape="1802.06,947.20 1800.04,945.26 1799.11,943.14 1799.28,940.85 1800.53,938.39"/>
    </edge>
    <edge id=":10055679234_2" function="internal">
        <lane id=":10055679234_2_0" index="0" allow="pedestrian delivery bicycle" speed="3.65" length="4.67" shape="1802.06,947.20 1801.56,945.85 1801.70,944.97 1802.49,944.56 1803.94,944.61"/>
    </edge>
    <edge id=":10055679234_3" function="internal">
        <lane id=":10055679234_3_0" index="0" allow="pedestrian delivery bicycle" speed="5.08" length="5.06" shape="1803.14,940.24 1802.53,941.45 1802.45,942.59 1802.92,943.64 1803.94,944.61"/>
    </edge>
    <edge id=":10055679234_4" function="internal">
        <lane id=":10055679234_4_0" index="0" disallow="tram rail_urban rail rail_electric rail_fast ship container cable_car subway aircraft wheelchair scooter drone" speed="8.33" length="9.41" shape="1803.14,940.24 1797.73,947.93"/>
    </edge>
    <edge id=":10055679234_5" function="internal">
        <lane id=":10055679234_5_0" index="0" disallow="tram rail_urban rail rail_electric rail_fast ship container cable_car subway aircraft wheelchair scooter drone" speed="8.33" length="9.42" shape="1795.11,946.09 1800.53,938.39"/>
    </edge>
    <edge id=":10055679234_6" function="internal">
        <lane id=":10055679234_6_0" index="0" allow="pedestrian delivery bicycle" speed="6.85" length="3.29" shape="1795.11,946.09 1797.04,944.04 1797.47,943.85"/>
    </edge>
    <edge id=":10055679234_7" function="internal">
        <lane id=":10055679234_7_0" index="0" allow="pedestrian delivery bicycle" speed="6.85" length="6.95" shape="1797.47,943.85 1799.15,943.11 1801.45,943.30 1803.94,944.61"/>
    </edge>
    <edge id=":10055814157_0" function="internal">
        <lane id=":10055814157_0_0" index="0" allow="pedestrian delivery bicycle" speed="3.65" length="4.67" shape="1879.33,994.65 1880.39,993.67 1881.26,993.46 1881.95,994.04 1882.45,995.39"/>
    </edge>
    <edge id=":10239200983_0" function="internal">
        <lane id=":10239200983_0_0" index="0" disallow="bicycle tram rail_urban rail rail_electric rail_fast ship container cable_car subway aircraft wheelchair scooter drone" speed="27.78" length="8.47" shape="1453.41,753.03 1452.17,751.01 1451.23,749.69 1450.10,748.52 1448.34,746.94"/>
        <lane id=":10239200983_0_1" index="1" disallow="bicycle tram rail_urban rail rail_electric rail_fast ship container cable_car subway aircraft wheelchair scooter drone" speed="27.78" length="8.47" shape="1456.15,751.37 1454.76,749.11 1453.70,747.63 1452.43,746.31 1450.45,744.54"/>
    </edge>
    <edge id=":10239200983_2" function="internal">
        <lane id=":10239200983_2_0" index="0" disallow="bicycle tram rail_urban rail rail_electric rail_fast ship container cable_car subway aircraft wheelchair scooter drone" speed="3.65" length="1.44" shape="1456.15,751.37 1456.22,749.93"/>
    </edge>
    <edge id=":10239200983_8" function="internal">
        <lane id=":10239200983_8_0" index="0" disallow="bicycle tram rail_urban rail rail_electric rail_fast ship container cable_car subway aircraft wheelchair scooter drone" speed="3.65" length="3.23" shape="1456.22,749.93 1456.70,749.18 1457.59,749.11 1458.89,749.72"/>
    </edge>
    <edge id=":10239200983_3" function="internal">
        <lane id=":10239200983_3_0" index="0" allow="bus" speed="6.52" length="8.53" shape="1463.18,740.63 1461.50,742.22 1460.68,743.99 1460.73,745.94 1461.63,748.07"/>
    </edge>
    <edge id=":10239200983_4" function="internal">
        <lane id=":10239200983_4_0" index="0" allow="bus" speed="8.73" length="14.06" shape="1463.18,740.63 1458.83,743.40 1455.26,744.98 1452.47,745.36 1450.45,744.54"/>
    </edge>
    <edge id=":10239200983_5" function="internal">
        <lane id=":10239200983_5_0" index="0" disallow="bicycle tram rail_urban rail rail_electric rail_fast ship container cable_car subway aircraft wheelchair scooter drone" speed="27.78" length="10.46" shape="1454.67,739.72 1457.09,741.88 1458.63,743.50 1459.94,745.31 1461.63,748.07"/>
        <lane id=":10239200983_5_1" index="1" disallow="bicycle tram rail_urban rail rail_electric rail_fast ship container cable_car subway aircraft wheelchair scooter drone" speed="27.78" length="10.46" shape="1452.56,742.13 1454.76,744.10 1456.16,745.56 1457.35,747.21 1458.89,749.72"/>
    </edge>
    <edge id=":10239200983_7" function="internal">
        <lane id=":10239200983_7_0" index="0" disallow="bicycle tram rail_urban rail rail_electric rail_fast ship container cable_car subway aircraft wheelchair scooter drone" speed="3.65" length="1.44" shape="1452.56,742.13 1452.94,743.52"/>
    </edge>
    <edge id=":10239200983_9" function="internal">
        <lane id=":10239200983_9_0" index="0" disallow="bicycle tram rail_urban rail rail_electric rail_fast ship container cable_car subway aircraft wheelchair scooter drone" speed="3.65" length="3.23" shape="1452.94,743.52 1452.71,744.39 1451.88,744.73 1450.45,744.54"/>
    </edge>
    <edge id=":1070717397_0" function="internal">
        <lane id=":1070717397_0_0" index="0" disallow="tram rail_urban rail rail_electric rail_fast ship container cable_car subway aircraft wheelchair scooter drone" speed="8.33" length="10.02" shape="1949.24,962.89 1946.87,961.09 1945.33,959.75 1943.74,958.48 1941.24,956.88"/>
    </edge>
    <edge id=":1070717397_1" function="internal">
        <lane id=":1070717397_1_0" index="0" disallow="tram rail_urban rail rail_electric rail_fast ship container cable_car subway aircraft wheelchair scooter drone" speed="6.82" length="19.06" shape="1949.24,962.89 1944.10,958.75 1942.95,956.37 1945.78,955.74 1952.59,956.87"/>
    </edge>
    <edge id=":1070717397_2" function="internal">
        <lane id=":1070717397_2_0" index="0" disallow="tram rail_urban rail rail_electric rail_fast ship container cable_car subway aircraft wheelchair scooter drone" speed="3.65" length="4.67" shape="1949.24,962.89 1948.72,961.54 1948.85,960.66 1949.64,960.23 1951.08,960.27"/>
    </edge>
    <edge id=":1070717397_3" function="internal">
        <lane id=":1070717397_3_0" index="0" disallow="tram rail_urban rail rail_electric rail_fast ship container cable_car subway aircraft wheelchair scooter drone" speed="15.27" length="10.22" shape="1942.84,954.12 1945.51,955.45 1947.51,956.02 1949.62,956.33 1952.59,956.87"/>
    </edge>
    <edge id=":1070717397_4" function="internal">
        <lane id=":1070717397_4_0" index="0" disallow="tram rail_urban rail rail_electric rail_fast ship container cable_car subway aircraft wheelchair scooter drone" speed="8.33" length="10.30" shape="1942.84,954.12 1945.38,955.73 1947.05,957.06 1948.68,958.45 1951.08,960.27"/>
    </edge>
    <edge id=":1070717397_5" function="internal">
        <lane id=":1070717397_5_0" index="0" disallow="tram rail_urban rail rail_electric rail_fast ship container cable_car subway aircraft wheelchair scooter drone" speed="3.65" length="4.67" shape="1942.84,954.12 1943.48,955.41 1943.42,956.30 1942.68,956.79 1941.24,956.88"/>
    </edge>
    <edge id=":1070717512_0" function="internal">
        <lane id=":1070717512_0_0" index="0" disallow="tram rail_urban rail rail_electric rail_fast ship container cable_car subway aircraft wheelchair scooter drone" speed="8.33" length="14.55" shape="2063.47,637.22 2059.88,651.32"/>
    </edge>
    <edge id=":1070717512_1" function="internal">
        <lane id=":1070717512_1_0" index="0" disallow="tram rail_urban rail rail_electric rail_fast ship container cable_car subway aircraft wheelchair scooter drone" speed="7.72" length="4.20" shape="2063.47,637.22 2061.88,641.11"/>
    </edge>
    <edge id=":1070717512_2" function="internal">
        <lane id=":1070717512_2_0" index="0" disallow="tram rail_urban rail rail_electric rail_fast ship container cable_car subway aircraft wheelchair scooter drone" speed="3.65" length="1.44" shape="2063.47,637.22 2062.41,638.19"/>
    </edge>
    <edge id=":1070717512_9" function="internal">
        <lane id=":1070717512_9_0" index="0" disallow="tram rail_urban rail rail_electric rail_fast ship container cable_car subway aircraft wheelchair scooter drone" speed="7.72" length="10.72" shape="2061.88,641.11 2059.48,643.31 2056.26,643.83 2052.22,642.66"/>
    </edge>
    <edge id=":1070717512_10" function="internal">
        <lane id=":1070717512_10_0" index="0" disallow="tram rail_urban rail rail_electric rail_fast ship container cable_car subway aircraft wheelchair scooter drone" speed="3.65" length="3.23" shape="2062.41,638.19 2061.53,638.38 2060.85,637.80 2060.37,636.44"/>
    </edge>
    <edge id=":1070717512_3" function="internal">
        <lane id=":1070717512_3_0" index="0" disallow="tram rail_urban rail rail_electric rail_fast ship container cable_car subway aircraft wheelchair scooter drone" speed="6.15" length="9.06" shape="2053.54,639.74 2055.99,640.45 2057.94,640.14 2059.40,638.80 2060.37,636.44"/>
    </edge>
    <edge id=":1070717512_4" function="internal">
        <lane id=":1070717512_4_0" index="0" disallow="tram rail_urban rail rail_electric rail_fast ship container cable_car subway aircraft wheelchair scooter drone" speed="8.63" length="14.53" shape="2053.54,639.74 2057.08,641.89 2059.31,644.53 2060.24,647.67 2059.88,651.32"/>
    </edge>
    <edge id=":1070717512_5" function="internal">
        <lane id=":1070717512_5_0" index="0" disallow="tram rail_urban rail rail_electric rail_fast ship container cable_car subway aircraft wheelchair scooter drone" speed="3.65" length="4.67" shape="2053.54,639.74 2054.31,640.97 2054.34,641.86 2053.65,642.42 2052.22,642.66"/>
    </edge>
    <edge id=":1070717512_6" function="internal">
        <lane id=":1070717512_6_0" index="0" disallow="tram rail_urban rail rail_electric rail_fast ship container cable_car subway aircraft wheelchair scooter drone" speed="7.25" length="9.99" shape="2056.78,650.51 2057.00,648.08 2056.32,645.96 2054.72,644.15 2052.22,642.66"/>
    </edge>
    <edge id=":1070717512_7" function="internal">
        <lane id=":1070717512_7_0" index="0" disallow="tram rail_urban rail rail_electric rail_fast ship container cable_car subway aircraft wheelchair scooter drone" speed="8.33" length="14.52" shape="2056.78,650.51 2060.37,636.44"/>
    </edge>
    <edge id=":1070717512_8" function="internal">
        <lane id=":1070717512_8_0" index="0" disallow="tram rail_urban rail rail_electric rail_fast ship container cable_car subway aircraft wheelchair scooter drone" speed="3.65" length="1.44" shape="2056.78,650.51 2057.86,649.55"/>
    </edge>
    <edge id=":1070717512_11" function="internal">
        <lane id=":1070717512_11_0" index="0" disallow="tram rail_urban rail rail_electric rail_fast ship container cable_car subway aircraft wheelchair scooter drone" speed="3.65" length="3.23" shape="2057.86,649.55 2058.73,649.36 2059.41,649.95 2059.88,651.32"/>
    </edge>
    <edge id=":1070717682_0" function="internal">
        <lane id=":1070717682_0_0" index="0" disallow="bicycle tram rail_urban rail rail_electric rail_fast ship container cable_car subway aircraft wheelchair scooter drone" speed="7.70" length="7.62" shape="1601.86,689.92 1600.67,690.94 1599.81,692.41 1599.29,694.32 1599.09,696.68"/>
    </edge>
    <edge id=":1070717682_1" function="internal">
        <lane id=":1070717682_1_0" index="0" disallow="bicycle tram rail_urban rail rail_electric rail_fast ship container cable_car subway aircraft wheelchair scooter drone" speed="27.78" length="8.31" shape="1601.86,689.92 1594.76,694.21"/>
        <lane id=":1070717682_1_1" index="1" disallow="bicycle tram rail_urban rail rail_electric rail_fast ship container cable_car subway aircraft wheelchair scooter drone" speed="27.78" length="8.31" shape="1600.23,687.16 1593.11,691.47"/>
    </edge>
    <edge id=":1070717682_3" function="internal">
        <lane id=":1070717682_3_0" index="0" disallow="bicycle tram rail_urban rail rail_electric rail_fast ship container cable_car subway aircraft wheelchair scooter drone" speed="3.65" length="1.44" shape="1600.23,687.16 1598.79,687.09"/>
    </edge>
    <edge id=":1070717682_8" function="internal">
        <lane id=":1070717682_8_0" index="0" disallow="bicycle tram rail_urban rail rail_electric rail_fast ship container cable_car subway aircraft wheelchair scooter drone" speed="3.65" length="3.23" shape="1598.79,687.09 1598.04,686.60 1597.98,685.71 1598.60,684.41"/>
    </edge>
    <edge id=":1070717682_4" function="internal">
        <lane id=":1070717682_4_0" index="0" disallow="bicycle tram rail_urban rail rail_electric rail_fast ship container cable_car subway aircraft wheelchair scooter drone" speed="27.78" length="8.37" shape="1589.80,685.99 1596.97,681.66"/>
        <lane id=":1070717682_4_1" index="1" disallow="bicycle tram rail_urban rail rail_electric rail_fast ship container cable_car subway aircraft wheelchair scooter drone" speed="27.78" length="8.37" shape="1591.45,688.73 1598.60,684.41"/>
    </edge>
    <edge id=":1070717682_6" function="internal">
        <lane id=":1070717682_6_0" index="0" disallow="bicycle tram rail_urban rail rail_electric rail_fast ship container cable_car subway aircraft wheelchair scooter drone" speed="6.94" length="3.42" shape="1591.45,688.73 1594.66,687.53"/>
    </edge>
    <edge id=":1070717682_7" function="internal">
        <lane id=":1070717682_7_0" index="0" disallow="bicycle tram rail_urban rail rail_electric rail_fast ship container cable_car subway aircraft wheelchair scooter drone" speed="3.65" length="1.44" shape="1591.45,688.73 1592.89,688.79"/>
    </edge>
    <edge id=":1070717682_9" function="internal">
        <lane id=":1070717682_9_0" index="0" disallow="bicycle tram rail_urban rail rail_electric rail_fast ship container cable_car subway aircraft wheelchair scooter drone" speed="6.94" length="11.41" shape="1594.66,687.53 1594.85,687.46 1597.25,688.37 1598.67,691.44 1599.09,696.68"/>
    </edge>
    <edge id=":1070717682_10" function="internal">
        <lane id=":1070717682_10_0" index="0" disallow="bicycle tram rail_urban rail rail_electric rail_fast ship container cable_car subway aircraft wheelchair scooter drone" speed="3.65" length="3.23" shape="1592.89,688.79 1593.65,689.27 1593.72,690.16 1593.11,691.47"/>
    </edge>
    <edge id=":1070717719_0" function="internal">
        <lane id=":1070717719_0_0" index="0" disallow="tram rail_urban rail rail_electric rail_fast ship container cable_car subway aircraft wheelchair scooter drone" speed="8.33" length="8.23" shape="1983.82,947.05 1981.35,954.90"/>
    </edge>
    <edge id=":1070717719_1" function="internal">
        <lane id=":1070717719_1_0" index="0" disallow="tram rail_urban rail rail_electric rail_fast ship container cable_car subway aircraft wheelchair scooter drone" speed="3.65" length="1.44" shape="1983.82,947.05 1982.72,947.99"/>
    </edge>
    <edge id=":1070717719_6" function="internal">
        <lane id=":1070717719_6_0" index="0" disallow="tram rail_urban rail rail_electric rail_fast ship container cable_car subway aircraft wheelchair scooter drone" speed="3.65" length="3.23" shape="1982.72,947.99 1981.84,948.16 1981.18,947.55 1980.74,946.18"/>
    </edge>
    <edge id=":1070717719_2" function="internal">
        <lane id=":1070717719_2_0" index="0" disallow="tram rail_urban rail rail_electric rail_fast ship container cable_car subway aircraft wheelchair scooter drone" speed="9.95" length="8.07" shape="1975.09,951.46 1977.20,950.29 1978.74,949.44 1979.87,948.29 1980.74,946.18"/>
    </edge>
    <edge id=":1070717719_3" function="internal">
        <lane id=":1070717719_3_0" index="0" disallow="tram rail_urban rail rail_electric rail_fast ship container cable_car subway aircraft wheelchair scooter drone" speed="5.97" length="12.37" shape="1975.09,951.46 1978.93,949.49 1981.25,949.40 1982.06,951.21 1981.35,954.90"/>
    </edge>
    <edge id=":1070717719_4" function="internal">
        <lane id=":1070717719_4_0" index="0" disallow="tram rail_urban rail rail_electric rail_fast ship container cable_car subway aircraft wheelchair scooter drone" speed="8.33" length="8.13" shape="1978.30,953.93 1980.74,946.18"/>
    </edge>
    <edge id=":1070717719_5" function="internal">
        <lane id=":1070717719_5_0" index="0" disallow="tram rail_urban rail rail_electric rail_fast ship container cable_car subway aircraft wheelchair scooter drone" speed="3.65" length="1.44" shape="1978.30,953.93 1979.43,953.03"/>
    </edge>
    <edge id=":1070717719_7" function="internal">
        <lane id=":1070717719_7_0" index="0" disallow="tram rail_urban rail rail_electric rail_fast ship container cable_car subway aircraft wheelchair scooter drone" speed="3.65" length="3.23" shape="1979.43,953.03 1980.31,952.89 1980.95,953.51 1981.35,954.90"/>
    </edge>
    <edge id=":1070717739_0" function="internal">
        <lane id=":1070717739_0_0" index="0" disallow="tram rail_urban rail rail_electric rail_fast ship container cable_car subway aircraft wheelchair scooter drone" speed="8.33" length="12.06" shape="1729.05,998.58 1726.61,1000.76 1724.93,1002.90 1723.65,1005.33 1722.40,1008.40"/>
    </edge>
    <edge id=":1070717739_1" function="internal">
        <lane id=":1070717739_1_0" index="0" disallow="tram rail_urban rail rail_electric rail_fast ship container cable_car subway aircraft wheelchair scooter drone" speed="8.33" length="13.72" shape="1729.05,998.58 1726.34,1000.17 1723.25,1001.00 1719.78,1001.05 1715.94,1000.33"/>
    </edge>
    <edge id=":1070717739_2" function="internal">
        <lane id=":1070717739_2_0" index="0" disallow="tram rail_urban rail rail_electric rail_fast ship container cable_car subway aircraft wheelchair scooter drone" speed="3.65" length="4.67" shape="1729.05,998.58 1727.61,998.69 1726.81,998.31 1726.63,997.43 1727.08,996.06"/>
    </edge>
    <edge id=":1070717739_3" function="internal">
        <lane id=":1070717739_3_0" index="0" disallow="tram rail_urban rail rail_electric rail_fast ship container cable_car subway aircraft wheelchair scooter drone" speed="8.33" length="10.74" shape="1716.79,997.24 1719.87,997.84 1722.61,997.84 1725.02,997.25 1727.08,996.06"/>
    </edge>
    <edge id=":1070717739_4" function="internal">
        <lane id=":1070717739_4_0" index="0" disallow="tram rail_urban rail rail_electric rail_fast ship container cable_car subway aircraft wheelchair scooter drone" speed="7.82" length="14.61" shape="1716.79,997.24 1720.51,998.86 1722.69,1001.26 1723.32,1004.44 1722.40,1008.40"/>
    </edge>
    <edge id=":1070717739_5" function="internal">
        <lane id=":1070717739_5_0" index="0" disallow="tram rail_urban rail rail_electric rail_fast ship container cable_car subway aircraft wheelchair scooter drone" speed="3.65" length="4.67" shape="1716.79,997.24 1717.73,998.33 1717.91,999.21 1717.31,999.88 1715.94,1000.33"/>
    </edge>
    <edge id=":1070717739_6" function="internal">
        <lane id=":1070717739_6_0" index="0" disallow="tram rail_urban rail rail_electric rail_fast ship container cable_car subway aircraft wheelchair scooter drone" speed="6.29" length="9.04" shape="1719.42,1007.24 1719.99,1004.79 1719.60,1002.82 1718.25,1001.33 1715.94,1000.33"/>
    </edge>
    <edge id=":1070717739_7" function="internal">
        <lane id=":1070717739_7_0" index="0" disallow="tram rail_urban rail rail_electric rail_fast ship container cable_car subway aircraft wheelchair scooter drone" speed="8.33" length="13.73" shape="1719.42,1007.24 1720.83,1003.96 1722.45,1001.06 1724.48,998.45 1727.08,996.06"/>
    </edge>
    <edge id=":1070717739_8" function="internal">
        <lane id=":1070717739_8_0" index="0" disallow="tram rail_urban rail rail_electric rail_fast ship container cable_car subway aircraft wheelchair scooter drone" speed="3.65" length="4.67" shape="1719.42,1007.24 1720.60,1006.41 1721.49,1006.33 1722.09,1006.99 1722.40,1008.40"/>
    </edge>
    <edge id=":1070717928_0" function="internal">
        <lane id=":1070717928_0_0" index="0" disallow="tram rail_urban rail rail_electric rail_fast ship container cable_car subway aircraft wheelchair scooter drone" speed="6.61" length="9.12" shape="2031.48,791.69 2028.98,791.46 2026.99,792.07 2025.51,793.50 2024.53,795.77"/>
    </edge>
    <edge id=":1070717928_1" function="internal">
        <lane id=":1070717928_1_0" index="0" disallow="tram rail_urban rail rail_electric rail_fast ship container cable_car subway aircraft wheelchair scooter drone" speed="8.00" length="14.20" shape="2031.48,791.69 2027.85,790.28 2025.55,788.05 2024.56,784.99 2024.91,781.12"/>
    </edge>
    <edge id=":1070717928_2" function="internal">
        <lane id=":1070717928_2_0" index="0" disallow="tram rail_urban rail rail_electric rail_fast ship container cable_car subway aircraft wheelchair scooter drone" speed="3.65" length="4.67" shape="2031.48,791.69 2030.49,790.64 2030.28,789.77 2030.85,789.08 2032.20,788.57"/>
    </edge>
    <edge id=":1070717928_3" function="internal">
        <lane id=":1070717928_3_0" index="0" disallow="tram rail_urban rail rail_electric rail_fast ship container cable_car subway aircraft wheelchair scooter drone" speed="6.50" length="9.03" shape="2028.02,781.85 2027.80,784.31 2028.43,786.26 2029.89,787.67 2032.20,788.57"/>
    </edge>
    <edge id=":1070717928_4" function="internal">
        <lane id=":1070717928_4_0" index="0" disallow="tram rail_urban rail rail_electric rail_fast ship container cable_car subway aircraft wheelchair scooter drone" speed="8.33" length="14.35" shape="2028.02,781.85 2024.53,795.77"/>
    </edge>
    <edge id=":1070717928_5" function="internal">
        <lane id=":1070717928_5_0" index="0" disallow="tram rail_urban rail rail_electric rail_fast ship container cable_car subway aircraft wheelchair scooter drone" speed="3.65" length="1.44" shape="2028.02,781.85 2026.97,782.83"/>
    </edge>
    <edge id=":1070717928_9" function="internal">
        <lane id=":1070717928_9_0" index="0" disallow="tram rail_urban rail rail_electric rail_fast ship container cable_car subway aircraft wheelchair scooter drone" speed="3.65" length="3.23" shape="2026.97,782.83 2026.10,783.04 2025.41,782.47 2024.91,781.12"/>
    </edge>
    <edge id=":1070717928_6" function="internal">
        <lane id=":1070717928_6_0" index="0" disallow="tram rail_urban rail rail_electric rail_fast ship container cable_car subway aircraft wheelchair scooter drone" speed="8.33" length="14.25" shape="2021.44,794.94 2024.91,781.12"/>
    </edge>
    <edge id=":1070717928_7" function="internal">
        <lane id=":1070717928_7_0" index="0" disallow="tram rail_urban rail rail_electric rail_fast ship container cable_car subway aircraft wheelchair scooter drone" speed="8.09" length="3.84" shape="2021.44,794.94 2022.95,791.41"/>
    </edge>
    <edge id=":1070717928_8" function="internal">
        <lane id=":1070717928_8_0" index="0" disallow="tram rail_urban rail rail_electric rail_fast ship container cable_car subway aircraft wheelchair scooter drone" speed="3.65" length="1.44" shape="2021.44,794.94 2022.53,793.99"/>
    </edge>
    <edge id=":1070717928_10" function="internal">
        <lane id=":1070717928_10_0" index="0" disallow="tram rail_urban rail rail_electric rail_fast ship container cable_car subway aircraft wheelchair scooter drone" speed="8.09" length="10.32" shape="2022.95,791.41 2025.25,789.17 2028.33,788.23 2032.20,788.57"/>
    </edge>
    <edge id=":1070717928_11" function="internal">
        <lane id=":1070717928_11_0" index="0" disallow="tram rail_urban rail rail_electric rail_fast ship container cable_car subway aircraft wheelchair scooter drone" speed="3.65" length="3.23" shape="2022.53,793.99 2023.40,793.81 2024.07,794.40 2024.53,795.77"/>
    </edge>
    <edge id=":1070718141_0" function="internal">
        <lane id=":1070718141_0_0" index="0" disallow="tram rail_urban rail rail_electric rail_fast ship container cable_car subway aircraft wheelchair scooter drone" speed="8.33" length="14.61" shape="1976.64,969.86 1972.40,983.84"/>
    </edge>
    <edge id=":1070718141_1" function="internal">
        <lane id=":1070718141_1_0" index="0" disallow="tram rail_urban rail rail_electric rail_fast ship container cable_car subway aircraft wheelchair scooter drone" speed="7.56" length="15.52" shape="1976.64,969.86 1974.71,973.88 1972.09,975.89 1968.80,975.88 1964.82,973.85"/>
    </edge>
    <edge id=":1070718141_2" function="internal">
        <lane id=":1070718141_2_0" index="0" disallow="tram rail_urban rail rail_electric rail_fast ship container cable_car subway aircraft wheelchair scooter drone" speed="3.65" length="4.67" shape="1976.64,969.86 1975.51,970.76 1974.63,970.90 1973.99,970.28 1973.58,968.89"/>
    </edge>
    <edge id=":1070718141_3" function="internal">
        <lane id=":1070718141_3_0" index="0" disallow="tram rail_urban rail rail_electric rail_fast ship container cable_car subway aircraft wheelchair scooter drone" speed="5.94" length="9.09" shape="1966.66,971.23 1968.99,972.42 1970.92,972.43 1972.45,971.25 1973.58,968.89"/>
    </edge>
    <edge id=":1070718141_4" function="internal">
        <lane id=":1070718141_4_0" index="0" disallow="tram rail_urban rail rail_electric rail_fast ship container cable_car subway aircraft wheelchair scooter drone" speed="8.33" length="14.85" shape="1966.66,971.23 1969.94,974.07 1971.99,977.12 1972.81,980.37 1972.40,983.84"/>
    </edge>
    <edge id=":1070718141_5" function="internal">
        <lane id=":1070718141_5_0" index="0" disallow="tram rail_urban rail rail_electric rail_fast ship container cable_car subway aircraft wheelchair scooter drone" speed="3.65" length="4.67" shape="1966.66,971.23 1967.18,972.58 1967.05,973.46 1966.26,973.89 1964.82,973.85"/>
    </edge>
    <edge id=":1070718141_6" function="internal">