<?xml version='1.0' encoding='UTF-8'?>
<additional xmlns:xsi="http://www.w3.org/2001/XMLSchema-instance" xsi:noNamespaceSchemaLocation="http://sumo.dlr.de/xsd/additional_file.xsd">
    <taz id="shopping_mall_central_mall_biñan" edges="140483178#3 -140483178#3 140483178#4 -140483178#4 1120222500">
        <tazSource id="140483178#3" weight="1.0" />
        <tazSource id="-140483178#3" weight="1.0" />
        <tazSource id="140483178#4" weight="1.0" />
        <tazSource id="-140483178#4" weight="1.0" />
        <tazSource id="1120222500" weight="1.0" />
        <tazSink id="140483178#3" weight="1.0" />
        <tazSink id="-140483178#3" weight="1.0" />
        <tazSink id="140483178#4" weight="1.0" />
        <tazSink id="-140483178#4" weight="1.0" />
        <tazSink id="1120222500" weight="1.0" />
    </taz>
    <taz id="shopping_mall_savemore_market_biñan_laguna" edges="140483178#3 -140483178#3 -119709657 140483178#2 -140483178#2">
        <tazSource id="140483178#3" weight="1.0" />
        <tazSource id="-140483178#3" weight="1.0" />
        <tazSource id="-119709657" weight="1.0" />
        <tazSource id="140483178#2" weight="1.0" />
        <tazSource id="-140483178#2" weight="1.0" />
        <tazSink id="140483178#3" weight="1.0" />
        <tazSink id="-140483178#3" weight="1.0" />
        <tazSink id="-119709657" weight="1.0" />
        <tazSink id="140483178#2" weight="1.0" />
        <tazSink id="-140483178#2" weight="1.0" />
    </taz>
    <taz id="shopping_mall_imart_shopping_center__biñan_" edges="-140483178#5 140483178#5 361256298#2 361256298#3 -361256298#2">
        <tazSource id="-140483178#5" weight="1.0" />
        <tazSource id="140483178#5" weight="1.0" />
        <tazSource id="361256298#2" weight="1.0" />
        <tazSource id="361256298#3" weight="1.0" />
        <tazSource id="-361256298#2" weight="1.0" />
        <tazSink id="-140483178#5" weight="1.0" />
        <tazSink id="140483178#5" weight="1.0" />
        <tazSink id="361256298#2" weight="1.0" />
        <tazSink id="361256298#3" weight="1.0" />
        <tazSink id="-361256298#2" weight="1.0" />
    </taz>
    <taz id="university_university_of_perpetual_help_s" edges="135364454 -135364454 -135364473#1 -135364473#0 135364473#1">
        <tazSource id="135364454" weight="1.0" />
        <tazSource id="-135364454" weight="1.0" />
        <tazSource id="-135364473#1" weight="1.0" />
        <tazSource id="-135364473#0" weight="1.0" />
        <tazSource id="135364473#1" weight="1.0" />
        <tazSink id="135364454" weight="1.0" />
        <tazSink id="-135364454" weight="1.0" />
        <tazSink id="-135364473#1" weight="1.0" />
        <tazSink id="-135364473#0" weight="1.0" />
        <tazSink id="135364473#1" weight="1.0" />
    </taz>
    <taz id="university_sta_catalina_college" edges="123172358 -123172358 -32083693#1 -32083693#2 32083693#1">
        <tazSource id="123172358" weight="1.0" />
        <tazSource id="-123172358" weight="1.0" />
        <tazSource id="-32083693#1" weight="1.0" />
        <tazSource id="-32083693#2" weight="1.0" />
        <tazSource id="32083693#1" weight="1.0" />
        <tazSink id="123172358" weight="1.0" />
        <tazSink id="-123172358" weight="1.0" />
        <tazSink id="-32083693#1" weight="1.0" />
        <tazSink id="-32083693#2" weight="1.0" />
        <tazSink id="32083693#1" weight="1.0" />
    </taz>
    <taz id="shopping_mall_red_planet_arcade" edges="140483224#12 -140483224#12 769219461 1084101426 -140483224#11">
        <tazSource id="140483224#12" weight="1.0" />
        <tazSource id="-140483224#12" weight="1.0" />
        <tazSource id="769219461" weight="1.0" />
        <tazSource id="1084101426" weight="1.0" />
        <tazSource id="-140483224#11" weight="1.0" />
        <tazSink id="140483224#12" weight="1.0" />
        <tazSink id="-140483224#12" weight="1.0" />
        <tazSink id="769219461" weight="1.0" />
        <tazSink id="1084101426" weight="1.0" />
        <tazSink id="-140483224#11" weight="1.0" />
    </taz>
    <taz id="university_trimex_colleges" edges="-361256298#2 140483249#1 140483211 361256298#2 -140483211">
        <tazSource id="-361256298#2" weight="1.0" />
        <tazSource id="140483249#1" weight="1.0" />
        <tazSource id="140483211" weight="1.0" />
        <tazSource id="361256298#2" weight="1.0" />
        <tazSource id="-140483211" weight="1.0" />
        <tazSink id="-361256298#2" weight="1.0" />
        <tazSink id="140483249#1" weight="1.0" />
        <tazSink id="140483211" weight="1.0" />
        <tazSink id="361256298#2" weight="1.0" />
        <tazSink id="-140483211" weight="1.0" />
    </taz>
    <taz id="shopping_mall_cristy_footwear_center" edges="-121970272 121970272 140483249#0 361260925#4 361260925#2">
        <tazSource id="-121970272" weight="1.0" />
        <tazSource id="121970272" weight="1.0" />
        <tazSource id="140483249#0" weight="1.0" />
        <tazSource id="361260925#4" weight="1.0" />
        <tazSource id="361260925#2" weight="1.0" />
        <tazSink id="-121970272" weight="1.0" />
        <tazSink id="121970272" weight="1.0" />
        <tazSink id="140483249#0" weight="1.0" />
        <tazSink id="361260925#4" weight="1.0" />
        <tazSink id="361260925#2" weight="1.0" />
    </taz>
    <taz id="transit_station_centro_mall_binan" edges="140483178#3 -140483178#3 140483178#4 -140483178#4 -1120222500">
        <tazSource id="140483178#3" weight="1.0" />
        <tazSource id="-140483178#3" weight="1.0" />
        <tazSource id="140483178#4" weight="1.0" />
        <tazSource id="-140483178#4" weight="1.0" />
        <tazSource id="-1120222500" weight="1.0" />
        <tazSink id="140483178#3" weight="1.0" />
        <tazSink id="-140483178#3" weight="1.0" />
        <tazSink id="140483178#4" weight="1.0" />
        <tazSink id="-140483178#4" weight="1.0" />
        <tazSink id="-1120222500" weight="1.0" />
    </taz>
    <taz id="university_international_electronics_and_" edges="-140483178#3 140483178#3 1120222500 -1120222500 -140483178#4">
        <tazSource id="-140483178#3" weight="1.0" />
        <tazSource id="140483178#3" weight="1.0" />
        <tazSource id="1120222500" weight="1.0" />
        <tazSource id="-1120222500" weight="1.0" />
        <tazSource id="-140483178#4" weight="1.0" />
        <tazSink id="-140483178#3" weight="1.0" />
        <tazSink id="140483178#3" weight="1.0" />
        <tazSink id="1120222500" weight="1.0" />
        <tazSink id="-1120222500" weight="1.0" />
        <tazSink id="-140483178#4" weight="1.0" />
    </taz>
    <taz id="university_polytechnic_university_of_the_" edges="140483244#1 -140483244#1 140483244#0 562271094 -140483244#0">
        <tazSource id="140483244#1" weight="1.0" />
        <tazSource id="-140483244#1" weight="1.0" />
        <tazSource id="140483244#0" weight="1.0" />
        <tazSource id="562271094" weight="1.0" />
        <tazSource id="-140483244#0" weight="1.0" />
        <tazSink id="140483244#1" weight="1.0" />
        <tazSink id="-140483244#1" weight="1.0" />
        <tazSink id="140483244#0" weight="1.0" />
        <tazSink id="562271094" weight="1.0" />
        <tazSink id="-140483244#0" weight="1.0" />
    </taz>
    <taz id="transit_station_binan" edges="140483178#1 140483178#2 -140483178#2 -140483178#1 114920907#1">
        <tazSource id="140483178#1" weight="1.0" />
        <tazSource id="140483178#2" weight="1.0" />
        <tazSource id="-140483178#2" weight="1.0" />
        <tazSource id="-140483178#1" weight="1.0" />
        <tazSource id="114920907#1" weight="1.0" />
        <tazSink id="140483178#1" weight="1.0" />
        <tazSink id="140483178#2" weight="1.0" />
        <tazSink id="-140483178#2" weight="1.0" />
        <tazSink id="-140483178#1" weight="1.0" />
        <tazSink id="114920907#1" weight="1.0" />
    </taz>
    <taz id="hospital_st_ezekiel_animal_bite_center" edges="-114920907#1 133267659#4 114920907#1 133267659#5 -135364473#0">
        <tazSource id="-114920907#1" weight="1.0" />
        <tazSource id="133267659#4" weight="1.0" />
        <tazSource id="114920907#1" weight="1.0" />
        <tazSource id="133267659#5" weight="1.0" />
        <tazSource id="-135364473#0" weight="1.0" />
        <tazSink id="-114920907#1" weight="1.0" />
        <tazSink id="133267659#4" weight="1.0" />
        <tazSink id="114920907#1" weight="1.0" />
        <tazSink id="133267659#5" weight="1.0" />
        <tazSink id="-135364473#0" weight="1.0" />
    </taz>
    <taz id="university_manila_montessori_college_inte" edges="140483241#0 -140483241#0 140483244#1 140483244#0 -140483244#1">
        <tazSource id="140483241#0" weight="1.0" />
        <tazSource id="-140483241#0" weight="1.0" />
        <tazSource id="140483244#1" weight="1.0" />
        <tazSource id="140483244#0" weight="1.0" />
        <tazSource id="-140483244#1" weight="1.0" />
        <tazSink id="140483241#0" weight="1.0" />
        <tazSink id="-140483241#0" weight="1.0" />
        <tazSink id="140483244#1" weight="1.0" />
        <tazSink id="140483244#0" weight="1.0" />
        <tazSink id="-140483244#1" weight="1.0" />
    </taz>
    <taz id="university_san_juan_marys_child_learning" edges="-93590611#1 93590611#1 894517879 93590608 -894517879">
        <tazSource id="-93590611#1" weight="1.0" />
        <tazSource id="93590611#1" weight="1.0" />
        <tazSource id="894517879" weight="1.0" />
        <tazSource id="93590608" weight="1.0" />
        <tazSource id="-894517879" weight="1.0" />
        <tazSink id="-93590611#1" weight="1.0" />
        <tazSink id="93590611#1" weight="1.0" />
        <tazSink id="894517879" weight="1.0" />
        <tazSink id="93590608" weight="1.0" />
        <tazSink id="-894517879" weight="1.0" />
    </taz>
    <taz id="transit_station_jeepney_terminal" edges="114920912 361256298#1 -114920912 361256298#2 -361256298#1">
        <tazSource id="114920912" weight="1.0" />
        <tazSource id="361256298#1" weight="1.0" />
        <tazSource id="-114920912" weight="1.0" />
        <tazSource id="361256298#2" weight="1.0" />
        <tazSource id="-361256298#1" weight="1.0" />
        <tazSink id="114920912" weight="1.0" />
        <tazSink id="361256298#1" weight="1.0" />
        <tazSink id="-114920912" weight="1.0" />
        <tazSink id="361256298#2" weight="1.0" />
        <tazSink id="-361256298#1" weight="1.0" />
    </taz>
    <taz id="university_ama_university__biñan" edges="911352556 140483224#6 140483224#7 140483224#8 -119709657">
        <tazSource id="911352556" weight="1.0" />
        <tazSource id="140483224#6" weight="1.0" />
        <tazSource id="140483224#7" weight="1.0" />
        <tazSource id="140483224#8" weight="1.0" />
        <tazSource id="-119709657" weight="1.0" />
        <tazSink id="911352556" weight="1.0" />
        <tazSink id="140483224#6" weight="1.0" />
        <tazSink id="140483224#7" weight="1.0" />
        <tazSink id="140483224#8" weight="1.0" />
        <tazSink id="-119709657" weight="1.0" />
    </taz>
    <taz id="hospital_university_of_perpetual_help_l" edges="-135364454 135364454 -135364473#1 135364473#1 -135364473#0">
        <tazSource id="-135364454" weight="1.0" />
        <tazSource id="135364454" weight="1.0" />
        <tazSource id="-135364473#1" weight="1.0" />
        <tazSource id="135364473#1" weight="1.0" />
        <tazSource id="-135364473#0" weight="1.0" />
        <tazSink id="-135364454" weight="1.0" />
        <tazSink id="135364454" weight="1.0" />
        <tazSink id="-135364473#1" weight="1.0" />
        <tazSink id="135364473#1" weight="1.0" />
        <tazSink id="-135364473#0" weight="1.0" />
    </taz>
    <taz id="school_montessori_childrens_workshop" edges="140483241#0 -140483241#0 140483244#0 -140483244#0 -140483241#1">
        <tazSource id="140483241#0" weight="1.0" />
        <tazSource id="-140483241#0" weight="1.0" />
        <tazSource id="140483244#0" weight="1.0" />
        <tazSource id="-140483244#0" weight="1.0" />
        <tazSource id="-140483241#1" weight="1.0" />
        <tazSink id="140483241#0" weight="1.0" />
        <tazSink id="-140483241#0" weight="1.0" />
        <tazSink id="140483244#0" weight="1.0" />
        <tazSink id="-140483244#0" weight="1.0" />
        <tazSink id="-140483241#1" weight="1.0" />
    </taz>
    <taz id="hospital_biteaid_animal_bite_center" edges="361256298#1 361256298#0 -361256298#1 -361256298#0 361257726">
        <tazSource id="361256298#1" weight="1.0" />
        <tazSource id="361256298#0" weight="1.0" />
        <tazSource id="-361256298#1" weight="1.0" />
        <tazSource id="-361256298#0" weight="1.0" />
        <tazSource id="361257726" weight="1.0" />
        <tazSink id="361256298#1" weight="1.0" />
        <tazSink id="361256298#0" weight="1.0" />
        <tazSink id="-361256298#1" weight="1.0" />
        <tazSink id="-361256298#0" weight="1.0" />
        <tazSink id="361257726" weight="1.0" />
    </taz>
    <taz id="hospital_biñan_city_health_office_i" edges="1120222500 -1120222500 -140483178#3 140483178#3 -140483178#4">
        <tazSource id="1120222500" weight="1.0" />
        <tazSource id="-1120222500" weight="1.0" />
        <tazSource id="-140483178#3" weight="1.0" />
        <tazSource id="140483178#3" weight="1.0" />
        <tazSource id="-140483178#4" weight="1.0" />
        <tazSink id="1120222500" weight="1.0" />
        <tazSink id="-1120222500" weight="1.0" />
        <tazSink id="-140483178#3" weight="1.0" />
        <tazSink id="140483178#3" weight="1.0" />
        <tazSink id="-140483178#4" weight="1.0" />
    </taz>
    <taz id="transit_station_binan" edges="361256298#0 361256298#1 -361256298#0 -361256298#1 361257726">
        <tazSource id="361256298#0" weight="1.0" />
        <tazSource id="361256298#1" weight="1.0" />
        <tazSource id="-361256298#0" weight="1.0" />
        <tazSource id="-361256298#1" weight="1.0" />
        <tazSource id="361257726" weight="1.0" />
        <tazSink id="361256298#0" weight="1.0" />
        <tazSink id="361256298#1" weight="1.0" />
        <tazSink id="-361256298#0" weight="1.0" />
        <tazSink id="-361256298#1" weight="1.0" />
        <tazSink id="361257726" weight="1.0" />
    </taz>
    <taz id="park_plaza_rizal" edges="-361256298#2 140483211 -140483211 -361256298#1 361256298#1">
        <tazSource id="-361256298#2" weight="1.0" />
        <tazSource id="140483211" weight="1.0" />
        <tazSource id="-140483211" weight="1.0" />
        <tazSource id="-361256298#1" weight="1.0" />
        <tazSource id="361256298#1" weight="1.0" />
        <tazSink id="-361256298#2" weight="1.0" />
        <tazSink id="140483211" weight="1.0" />
        <tazSink id="-140483211" weight="1.0" />
        <tazSink id="-361256298#1" weight="1.0" />
        <tazSink id="361256298#1" weight="1.0" />
    </taz>
    <taz id="school_areza_group_of_companies" edges="-894564672 894564672 -1084093104 1084093104 140483241#3">
        <tazSource id="-894564672" weight="1.0" />
        <tazSource id="894564672" weight="1.0" />
        <tazSource id="-1084093104" weight="1.0" />
        <tazSource id="1084093104" weight="1.0" />
        <tazSource id="140483241#3" weight="1.0" />
        <tazSink id="-894564672" weight="1.0" />
        <tazSink id="894564672" weight="1.0" />
        <tazSink id="-1084093104" weight="1.0" />
        <tazSink id="1084093104" weight="1.0" />
        <tazSink id="140483241#3" weight="1.0" />
    </taz>
    <taz id="school_maribel_child_development_cent" edges="-562271094 562271094 -140483244#0 -140483244#1 140483244#0">
        <tazSource id="-562271094" weight="1.0" />
        <tazSource id="562271094" weight="1.0" />
        <tazSource id="-140483244#0" weight="1.0" />
        <tazSource id="-140483244#1" weight="1.0" />
        <tazSource id="140483244#0" weight="1.0" />
        <tazSink id="-562271094" weight="1.0" />
        <tazSink id="562271094" weight="1.0" />
        <tazSink id="-140483244#0" weight="1.0" />
        <tazSink id="-140483244#1" weight="1.0" />
        <tazSink id="140483244#0" weight="1.0" />
    </taz>
    <taz id="hospital_binan_city_health_office_2_bgy" edges="-793339796#1 -123172358 123172358 -793339796#2 -793339796#0">
        <tazSource id="-793339796#1" weight="1.0" />
        <tazSource id="-123172358" weight="1.0" />
        <tazSource id="123172358" weight="1.0" />
        <tazSource id="-793339796#2" weight="1.0" />
        <tazSource id="-793339796#0" weight="1.0" />
        <tazSink id="-793339796#1" weight="1.0" />
        <tazSink id="-123172358" weight="1.0" />
        <tazSink id="123172358" weight="1.0" />
        <tazSink id="-793339796#2" weight="1.0" />
        <tazSink id="-793339796#0" weight="1.0" />
    </taz>
    <taz id="point_of_interest_jac_liner_terminal__binan" edges="361256298#0 361256298#1 -361256298#1 -361256298#0 361257726">
        <tazSource id="361256298#0" weight="1.0" />
        <tazSource id="361256298#1" weight="1.0" />
        <tazSource id="-361256298#1" weight="1.0" />
        <tazSource id="-361256298#0" weight="1.0" />
        <tazSource id="361257726" weight="1.0" />
        <tazSink id="361256298#0" weight="1.0" />
        <tazSink id="361256298#1" weight="1.0" />
        <tazSink id="-361256298#1" weight="1.0" />
        <tazSink id="-361256298#0" weight="1.0" />
        <tazSink id="361257726" weight="1.0" />
    </taz>
    <taz id="point_of_interest_shrine_of_jesus_in_the_holy_se" edges="-140483254#0 140483254#0">
        <tazSource id="-140483254#0" weight="1.0" />
        <tazSource id="140483254#0" weight="1.0" />
        <tazSink id="-140483254#0" weight="1.0" />
        <tazSink id="140483254#0" weight="1.0" />
    </taz>
    <taz id="hospital_biñan_city_hospital" edges="-894564672 894564672 93590599#0 -93590599#0 -1084093104">
        <tazSource id="-894564672" weight="1.0" />
        <tazSource id="894564672" weight="1.0" />
        <tazSource id="93590599#0" weight="1.0" />
        <tazSource id="-93590599#0" weight="1.0" />
        <tazSource id="-1084093104" weight="1.0" />
        <tazSink id="-894564672" weight="1.0" />
        <tazSink id="894564672" weight="1.0" />
        <tazSink id="93590599#0" weight="1.0" />
        <tazSink id="-93590599#0" weight="1.0" />
        <tazSink id="-1084093104" weight="1.0" />
    </taz>
    <taz id="hospital_perpetual_help_medical_center_" edges="-135364454 135364454 -135364473#1 135364473#1 -135364473#0">
        <tazSource id="-135364454" weight="1.0" />
        <tazSource id="135364454" weight="1.0" />
        <tazSource id="-135364473#1" weight="1.0" />
        <tazSource id="135364473#1" weight="1.0" />
        <tazSource id="-135364473#0" weight="1.0" />
        <tazSink id="-135364454" weight="1.0" />
        <tazSink id="135364454" weight="1.0" />
        <tazSink id="-135364473#1" weight="1.0" />
        <tazSink id="135364473#1" weight="1.0" />
        <tazSink id="-135364473#0" weight="1.0" />
    </taz>
    <taz id="stadium_sports_complex" edges="140483224#0 -667982626 140483224#1 667982626 -140483224#0">
        <tazSource id="140483224#0" weight="1.0" />
        <tazSource id="-667982626" weight="1.0" />
        <tazSource id="140483224#1" weight="1.0" />
        <tazSource id="667982626" weight="1.0" />
        <tazSource id="-140483224#0" weight="1.0" />
        <tazSink id="140483224#0" weight="1.0" />
        <tazSink id="-667982626" weight="1.0" />
        <tazSink id="140483224#1" weight="1.0" />
        <tazSink id="667982626" weight="1.0" />
        <tazSink id="-140483224#0" weight="1.0" />
    </taz>
    <taz id="shopping_mall_human_boutique" edges="140483178#3 -140483178#3 140483178#4 1120222500 -140483178#4">
        <tazSource id="140483178#3" weight="1.0" />
        <tazSource id="-140483178#3" weight="1.0" />
        <tazSource id="140483178#4" weight="1.0" />
        <tazSource id="1120222500" weight="1.0" />
        <tazSource id="-140483178#4" weight="1.0" />
        <tazSink id="140483178#3" weight="1.0" />
        <tazSink id="-140483178#3" weight="1.0" />
        <tazSink id="140483178#4" weight="1.0" />
        <tazSink id="1120222500" weight="1.0" />
        <tazSink id="-140483178#4" weight="1.0" />
    </taz>
    <taz id="point_of_interest_motortrade__biñan_1" edges="-119709657 -140483178#3 140483178#3 1120222500 119709657">
        <tazSource id="-119709657" weight="1.0" />
        <tazSource id="-140483178#3" weight="1.0" />
        <tazSource id="140483178#3" weight="1.0" />
        <tazSource id="1120222500" weight="1.0" />
        <tazSource id="119709657" weight="1.0" />
        <tazSink id="-119709657" weight="1.0" />
        <tazSink id="-140483178#3" weight="1.0" />
        <tazSink id="140483178#3" weight="1.0" />
        <tazSink id="1120222500" weight="1.0" />
        <tazSink id="119709657" weight="1.0" />
    </taz>
    <taz id="hospital_uph__dr_jose_gtamayo_medica" edges="-135364454 135364454 -135364473#1 135364473#1 -135364473#0">
        <tazSource id="-135364454" weight="1.0" />
        <tazSource id="135364454" weight="1.0" />
        <tazSource id="-135364473#1" weight="1.0" />
        <tazSource id="135364473#1" weight="1.0" />
        <tazSource id="-135364473#0" weight="1.0" />
        <tazSink id="-135364454" weight="1.0" />
        <tazSink id="135364454" weight="1.0" />
        <tazSink id="-135364473#1" weight="1.0" />
        <tazSink id="135364473#1" weight="1.0" />
        <tazSink id="-135364473#0" weight="1.0" />
    </taz>
    <taz id="park_ken_sam_aquatic_plants" edges="-119709657 119709657 -140483178#3 140483178#3 -140483178#2">
        <tazSource id="-119709657" weight="1.0" />
        <tazSource id="119709657" weight="1.0" />
        <tazSource id="-140483178#3" weight="1.0" />
        <tazSource id="140483178#3" weight="1.0" />
        <tazSource id="-140483178#2" weight="1.0" />
        <tazSink id="-119709657" weight="1.0" />
        <tazSink id="119709657" weight="1.0" />
        <tazSink id="-140483178#3" weight="1.0" />
        <tazSink id="140483178#3" weight="1.0" />
        <tazSink id="-140483178#2" weight="1.0" />
    </taz>
    <taz id="point_of_interest_mercury_drug__biñan_city_p_p" edges="-361256298#1 -140483211 140483211 361256298#1 -361256298#2">
        <tazSource id="-361256298#1" weight="1.0" />
        <tazSource id="-140483211" weight="1.0" />
        <tazSource id="140483211" weight="1.0" />
        <tazSource id="361256298#1" weight="1.0" />
        <tazSource id="-361256298#2" weight="1.0" />
        <tazSink id="-361256298#1" weight="1.0" />
        <tazSink id="-140483211" weight="1.0" />
        <tazSink id="140483211" weight="1.0" />
        <tazSink id="361256298#1" weight="1.0" />
        <tazSink id="-361256298#2" weight="1.0" />
    </taz>
</additional>